338
                    3D
 Structure written by MMmdl.
 37 39  0  0  1  0            999 V2000
   27.6451    1.5396  -11.1263 O   0  0  0  0  0  0
   27.1573    0.3054  -11.6394 C   0  0  2  0  0  0
   26.5145    0.3811  -13.0370 C   0  0  0  0  0  0
   25.0296    0.6292  -12.8066 C   0  0  1  0  0  0
   24.8033   -0.0375  -11.4699 C   0  0  0  0  0  0
   26.0149   -0.2195  -10.7892 C   0  0  0  0  0  0
   26.0208   -0.7620   -9.4965 C   0  0  0  0  0  0
   24.8017   -1.0822   -8.8969 C   0  0  0  0  0  0
   23.6059   -0.9366   -9.5941 C   0  0  0  0  0  0
   23.6020   -0.4342  -10.9000 C   0  0  0  0  0  0
   22.4861   -0.2954  -11.6940 O   0  0  0  0  0  0
   21.2424   -0.5775  -11.1970 C   0  0  0  0  0  0
   20.6737   -1.8297  -11.4038 C   0  0  0  0  0  0
   19.4234   -2.1113  -10.8674 C   0  0  0  0  0  0
   18.8511   -3.3118  -11.0589 F   0  0  0  0  0  0
   18.7462   -1.1423  -10.1427 C   0  0  0  0  0  0
   19.2860    0.1245   -9.9701 C   0  0  0  0  0  0
   18.5760    1.1643   -9.2539 C   0  0  0  0  0  0
   20.5501    0.3903  -10.4736 C   0  0  0  0  0  0
   27.5283   -1.0639   -8.5710 S   0  0  0  0  0  0
   27.2110   -1.9989   -7.4925 O   0  0  0  0  0  0
   28.6000   -1.3708   -9.5178 O   0  0  0  0  0  0
   27.0777    1.2809  -13.8505 F   0  0  0  0  0  0
   18.0176    1.9927   -8.6784 N   0  0  0  0  0  0
   24.8400    1.9615  -12.6525 F   0  0  0  0  0  0
   26.6372   -0.7929  -13.6486 F   0  0  0  0  0  0
   27.9360    0.4657   -7.8636 N   0  0  0  0  0  0
   28.3611    1.8550  -11.6954 H   0  0  0  0  0  0
   27.9701   -0.4195  -11.7119 H   0  0  0  0  0  0
   24.3886    0.2707  -13.6271 H   0  0  0  0  0  0
   24.7736   -1.4789   -7.8939 H   0  0  0  0  0  0
   22.6914   -1.2459   -9.1138 H   0  0  0  0  0  0
   21.2074   -2.5951  -11.9425 H   0  0  0  0  0  0
   17.8099   -1.4198   -9.7083 H   0  0  0  0  0  0
   21.0016    1.3428  -10.2620 H   0  0  0  0  0  0
   27.2694    0.7696   -7.1547 H   0  0  0  0  0  0
   28.1746    1.1824   -8.5552 H   0  0  0  0  0  0
  1  2  1  0  0  0
  1 28  1  0  0  0
  2  3  1  0  0  0
  2  6  1  0  0  0
  2 29  1  0  0  0
  3  4  1  0  0  0
  3 23  1  0  0  0
  3 26  1  0  0  0
  4  5  1  0  0  0
  4 25  1  0  0  0
  4 30  1  0  0  0
  5  6  2  0  0  0
  5 10  1  0  0  0
  6  7  1  0  0  0
  7  8  2  0  0  0
  7 20  1  0  0  0
  8  9  1  0  0  0
  8 31  1  0  0  0
  9 10  2  0  0  0
  9 32  1  0  0  0
 10 11  1  0  0  0
 11 12  1  0  0  0
 12 13  2  0  0  0
 12 19  1  0  0  0
 13 14  1  0  0  0
 13 33  1  0  0  0
 14 15  1  0  0  0
 14 16  2  0  0  0
 16 17  1  0  0  0
 16 34  1  0  0  0
 17 18  1  0  0  0
 17 19  2  0  0  0
 18 24  3  0  0  0
 19 35  1  0  0  0
 20 21  2  0  0  0
 20 22  2  0  0  0
 20 27  1  0  0  0
 27 36  1  0  0  0
 27 37  1  0  0  0
M  END
> <ID>
338

> <IC50[uM](SPA)>
0.013

$$$$
43
                    3D
 Structure written by MMmdl.
 34 35  0  0  1  0            999 V2000
   27.3206    0.2092  -11.5444 C   0  0  0  0  0  0
   24.8104   -0.0377  -11.5023 C   0  0  0  0  0  0
   26.0342   -0.2249  -10.8317 C   0  0  0  0  0  0
   26.0391   -0.7726   -9.5293 C   0  0  0  0  0  0
   24.8129   -1.0870   -8.9213 C   0  0  0  0  0  0
   23.6118   -0.9391   -9.6083 C   0  0  0  0  0  0
   23.6108   -0.4248  -10.9220 C   0  0  0  0  0  0
   22.4761   -0.3049  -11.6918 O   0  0  0  0  0  0
   21.2375   -0.5838  -11.1900 C   0  0  0  0  0  0
   20.6642   -1.8394  -11.3980 C   0  0  0  0  0  0
   19.4099   -2.1222  -10.8637 C   0  0  0  0  0  0
   18.7315   -1.1370  -10.1413 C   0  0  0  0  0  0
   19.2646    0.1136   -9.9710 C   0  0  0  0  0  0
   18.5795    1.1649   -9.2431 C   0  0  0  0  0  0
   20.5604    0.4002  -10.4797 C   0  0  0  0  0  0
   27.5401   -1.0912   -8.5545 S   0  0  0  0  0  0
   27.1859   -2.0084   -7.4841 O   0  0  0  0  0  0
   28.6206   -1.4509   -9.4586 O   0  0  0  0  0  0
   27.9627    0.5938   -7.7916 C   0  0  0  0  0  0
   27.7984    1.5671   -8.6677 F   0  0  0  0  0  0
   27.0861    0.7983   -6.7353 F   0  0  0  0  0  0
   24.7409    0.7017  -13.0762 Cl  0  0  0  0  0  0
   27.6879    1.5242  -11.1857 O   0  0  0  0  0  0
   18.0013    1.9953   -8.6849 N   0  0  0  0  0  0
   28.1313   -0.4949  -11.3851 H   0  0  0  0  0  0
   27.2003    0.1946  -12.6299 H   0  0  0  0  0  0
   24.7742   -1.4735   -7.9133 H   0  0  0  0  0  0
   22.6888   -1.2338   -9.1280 H   0  0  0  0  0  0
   21.2029   -2.5876  -11.9606 H   0  0  0  0  0  0
   18.9769   -3.1014  -11.0060 H   0  0  0  0  0  0
   17.7565   -1.3858   -9.7173 H   0  0  0  0  0  0
   21.0066    1.3603  -10.3264 H   0  0  0  0  0  0
   28.9730    0.5924   -7.4558 H   0  0  0  0  0  0
   28.4959    1.7705  -11.6621 H   0  0  0  0  0  0
  1  3  1  0  0  0
  1 23  1  0  0  0
  1 25  1  0  0  0
  1 26  1  0  0  0
  2  3  2  0  0  0
  2  7  1  0  0  0
  2 22  1  0  0  0
  3  4  1  0  0  0
  4  5  2  0  0  0
  4 16  1  0  0  0
  5  6  1  0  0  0
  5 27  1  0  0  0
  6  7  2  0  0  0
  6 28  1  0  0  0
  7  8  1  0  0  0
  8  9  1  0  0  0
  9 10  2  0  0  0
  9 15  1  0  0  0
 10 11  1  0  0  0
 10 29  1  0  0  0
 11 12  2  0  0  0
 11 30  1  0  0  0
 12 13  1  0  0  0
 12 31  1  0  0  0
 13 14  1  0  0  0
 13 15  2  0  0  0
 14 24  3  0  0  0
 15 32  1  0  0  0
 16 17  2  0  0  0
 16 18  2  0  0  0
 16 19  1  0  0  0
 19 20  1  0  0  0
 19 21  1  0  0  0
 19 33  1  0  0  0
 23 34  1  0  0  0
M  END
> <ID>
43

> <IC50[uM](SPA)>
0.42

$$$$
235
                    3D
 Structure written by MMmdl.
 37 39  0  0  1  0            999 V2000
   27.5822    1.5627  -11.2551 O   0  0  0  0  0  0
   27.1468    0.2863  -11.6761 C   0  0  2  0  0  0
   26.5086    0.3643  -13.0642 C   0  0  0  0  0  0
   25.0265    0.6075  -12.8332 C   0  0  0  0  0  0
   24.7967   -0.0605  -11.4946 C   0  0  0  0  0  0
   26.0077   -0.2336  -10.8115 C   0  0  0  0  0  0
   26.0091   -0.7786   -9.5174 C   0  0  0  0  0  0
   24.7944   -1.0867   -8.9034 C   0  0  0  0  0  0
   23.5936   -0.9312   -9.5951 C   0  0  0  0  0  0
   23.5911   -0.4269  -10.8990 C   0  0  0  0  0  0
   22.4730   -0.2997  -11.6967 O   0  0  0  0  0  0
   21.2211   -0.5557  -11.2088 C   0  0  0  0  0  0
   20.5807   -1.7704  -11.4636 C   0  0  0  0  0  0
   19.3293   -2.0485  -11.0244 N   0  0  0  0  0  0
   18.6868   -1.0883  -10.3158 C   0  0  0  0  0  0
   19.2441    0.1607  -10.0304 C   0  0  0  0  0  0
   18.5232    1.1702   -9.2782 C   0  0  0  0  0  0
   20.5375    0.4137  -10.4764 C   0  0  0  0  0  0
   27.5181   -1.0772   -8.5972 S   0  0  0  0  0  0
   27.2199   -2.0291   -7.5251 O   0  0  0  0  0  0
   28.5736   -1.4146   -9.5547 O   0  0  0  0  0  0
   27.9098    0.6015   -7.8247 C   0  0  0  0  0  0
   27.0599    1.2997  -13.8390 F   0  0  0  0  0  0
   26.6397   -0.8135  -13.6733 F   0  0  0  0  0  0
   17.9557    1.9748   -8.6688 N   0  0  0  0  0  0
   29.1729    0.5500   -7.4603 F   0  0  0  0  0  0
   27.7563    1.5773   -8.6957 F   0  0  0  0  0  0
   27.1098    0.7930   -6.7781 F   0  0  0  0  0  0
   28.3814    1.8217  -11.7482 H   0  0  0  0  0  0
   27.9776   -0.4206  -11.7025 H   0  0  0  0  0  0
   24.4121    0.1832  -13.6241 H   0  0  0  0  0  0
   24.8083    1.6771  -12.7815 H   0  0  0  0  0  0
   24.7762   -1.4676   -7.8938 H   0  0  0  0  0  0
   22.6785   -1.2385   -9.1186 H   0  0  0  0  0  0
   21.0644   -2.5457  -12.0352 H   0  0  0  0  0  0
   17.7081   -1.3631   -9.9794 H   0  0  0  0  0  0
   21.0111    1.3563  -10.2603 H   0  0  0  0  0  0
  1  2  1  0  0  0
  1 29  1  0  0  0
  2  3  1  0  0  0
  2  6  1  0  0  0
  2 30  1  0  0  0
  3  4  1  0  0  0
  3 23  1  0  0  0
  3 24  1  0  0  0
  4  5  1  0  0  0
  4 31  1  0  0  0
  4 32  1  0  0  0
  5  6  2  0  0  0
  5 10  1  0  0  0
  6  7  1  0  0  0
  7  8  2  0  0  0
  7 19  1  0  0  0
  8  9  1  0  0  0
  8 33  1  0  0  0
  9 10  2  0  0  0
  9 34  1  0  0  0
 10 11  1  0  0  0
 11 12  1  0  0  0
 12 13  2  0  0  0
 12 18  1  0  0  0
 13 14  1  0  0  0
 13 35  1  0  0  0
 14 15  2  0  0  0
 15 16  1  0  0  0
 15 36  1  0  0  0
 16 17  1  0  0  0
 16 18  2  0  0  0
 17 25  3  0  0  0
 18 37  1  0  0  0
 19 20  2  0  0  0
 19 21  2  0  0  0
 19 22  1  0  0  0
 22 26  1  0  0  0
 22 27  1  0  0  0
 22 28  1  0  0  0
M  END
> <ID>
235

> <IC50[uM](SPA)>
0.038

$$$$
234
                    3D
 Structure written by MMmdl.
 38 40  0  0  1  0            999 V2000
   27.5728    1.5601  -11.1459 O   0  0  0  0  0  0
   27.1536    0.3088  -11.6552 C   0  0  2  0  0  0
   26.5252    0.3787  -13.0559 C   0  0  0  0  0  0
   25.0351    0.5810  -12.8466 C   0  0  0  0  0  0
   24.8123   -0.0916  -11.5082 C   0  0  0  0  0  0
   26.0213   -0.2538  -10.8166 C   0  0  0  0  0  0
   26.0217   -0.7899   -9.5190 C   0  0  0  0  0  0
   24.8061   -1.1035   -8.9088 C   0  0  0  0  0  0
   23.6060   -0.9317   -9.5917 C   0  0  0  0  0  0
   23.6085   -0.4312  -10.8990 C   0  0  0  0  0  0
   22.4887   -0.2465  -11.6759 O   0  0  0  0  0  0
   21.2536   -0.5375  -11.1765 C   0  0  0  0  0  0
   20.6850   -1.7900  -11.3895 C   0  0  0  0  0  0
   19.4306   -2.0624  -10.8562 C   0  0  0  0  0  0
   18.6842   -3.5700  -11.0979 Cl  0  0  0  0  0  0
   18.7499   -1.1042  -10.1192 C   0  0  0  0  0  0
   19.2995    0.1632   -9.9426 C   0  0  0  0  0  0
   18.5790    1.1976   -9.2292 C   0  0  0  0  0  0
   20.5645    0.4307  -10.4478 C   0  0  0  0  0  0
   27.5212   -1.0658   -8.5765 S   0  0  0  0  0  0
   27.2091   -1.9751   -7.4734 O   0  0  0  0  0  0
   28.6014   -1.4067   -9.5003 O   0  0  0  0  0  0
   27.9046    0.6147   -7.8636 C   0  0  0  0  0  0
   27.0583    1.3232  -13.8300 F   0  0  0  0  0  0
   26.6754   -0.7993  -13.6647 F   0  0  0  0  0  0
   18.0104    2.0266   -8.6666 N   0  0  0  0  0  0
   28.3370    1.8866  -11.6617 H   0  0  0  0  0  0
   28.0013   -0.3730  -11.7036 H   0  0  0  0  0  0
   24.4365    0.1828  -13.6670 H   0  0  0  0  0  0
   24.7950    1.6418  -12.7665 H   0  0  0  0  0  0
   24.7820   -1.4948   -7.9039 H   0  0  0  0  0  0
   22.6892   -1.2153   -9.0980 H   0  0  0  0  0  0
   21.2216   -2.5514  -11.9357 H   0  0  0  0  0  0
   17.8153   -1.3857   -9.6829 H   0  0  0  0  0  0
   21.0238    1.3833  -10.2559 H   0  0  0  0  0  0
   28.8492    0.5007   -7.3454 H   0  0  0  0  0  0
   27.1052    0.9088   -7.1861 H   0  0  0  0  0  0
   28.0235    1.3382   -8.6638 H   0  0  0  0  0  0
  1  2  1  0  0  0
  1 27  1  0  0  0
  2  3  1  0  0  0
  2  6  1  0  0  0
  2 28  1  0  0  0
  3  4  1  0  0  0
  3 24  1  0  0  0
  3 25  1  0  0  0
  4  5  1  0  0  0
  4 29  1  0  0  0
  4 30  1  0  0  0
  5  6  2  0  0  0
  5 10  1  0  0  0
  6  7  1  0  0  0
  7  8  2  0  0  0
  7 20  1  0  0  0
  8  9  1  0  0  0
  8 31  1  0  0  0
  9 10  2  0  0  0
  9 32  1  0  0  0
 10 11  1  0  0  0
 11 12  1  0  0  0
 12 13  2  0  0  0
 12 19  1  0  0  0
 13 14  1  0  0  0
 13 33  1  0  0  0
 14 15  1  0  0  0
 14 16  2  0  0  0
 16 17  1  0  0  0
 16 34  1  0  0  0
 17 18  1  0  0  0
 17 19  2  0  0  0
 18 26  3  0  0  0
 19 35  1  0  0  0
 20 21  2  0  0  0
 20 22  2  0  0  0
 20 23  1  0  0  0
 23 36  1  0  0  0
 23 37  1  0  0  0
 23 38  1  0  0  0
M  END
> <ID>
234

> <IC50[uM](SPA)>
0.026

$$$$
30
                    3D
 Structure written by MMmdl.
 31 32  0  0  1  0            999 V2000
   27.5485    0.3136  -11.5391 Cl  0  0  0  0  0  0
   24.8372   -0.0289  -11.4983 C   0  0  0  0  0  0
   26.0452   -0.2007  -10.8100 C   0  0  0  0  0  0
   26.0339   -0.7721   -9.5247 C   0  0  0  0  0  0
   24.8128   -1.0812   -8.9236 C   0  0  0  0  0  0
   23.6194   -0.9276   -9.6191 C   0  0  0  0  0  0
   23.6217   -0.4318  -10.9248 C   0  0  0  0  0  0
   22.4810   -0.3037  -11.6892 O   0  0  0  0  0  0
   21.2399   -0.5885  -11.1701 C   0  0  0  0  0  0
   20.6662   -1.8374  -11.3902 C   0  0  0  0  0  0
   19.4091   -2.1170  -10.8684 C   0  0  0  0  0  0
   18.8393   -3.3237  -11.0680 F   0  0  0  0  0  0
   18.7264   -1.1511  -10.1393 C   0  0  0  0  0  0
   19.2825    0.1244   -9.9582 C   0  0  0  0  0  0
   18.5614    1.1690   -9.2489 C   0  0  0  0  0  0
   20.5500    0.3803  -10.4464 C   0  0  0  0  0  0
   27.5166   -1.0965   -8.5685 S   0  0  0  0  0  0
   27.1757   -2.0254   -7.4877 O   0  0  0  0  0  0
   28.5973   -1.4633   -9.4875 O   0  0  0  0  0  0
   27.8897    0.6007   -7.8518 C   0  0  0  0  0  0
   27.7354    1.5229   -8.8032 F   0  0  0  0  0  0
   27.0123    0.7944   -6.8835 F   0  0  0  0  0  0
   24.8330    0.6084  -12.8132 C   0  0  0  0  0  0
   24.8420    1.1182  -13.8525 N   0  0  0  0  0  0
   18.0078    2.0075   -8.6709 N   0  0  0  0  0  0
   24.7836   -1.4731   -7.9183 H   0  0  0  0  0  0
   22.6985   -1.2282   -9.1371 H   0  0  0  0  0  0
   21.1987   -2.5965  -11.9433 H   0  0  0  0  0  0
   17.7864   -1.4317   -9.6991 H   0  0  0  0  0  0
   21.0075    1.3441  -10.2726 H   0  0  0  0  0  0
   28.8873    0.6401   -7.4156 H   0  0  0  0  0  0
  1  3  1  0  0  0
  2  3  2  0  0  0
  2  7  1  0  0  0
  2 23  1  0  0  0
  3  4  1  0  0  0
  4  5  2  0  0  0
  4 17  1  0  0  0
  5  6  1  0  0  0
  5 26  1  0  0  0
  6  7  2  0  0  0
  6 27  1  0  0  0
  7  8  1  0  0  0
  8  9  1  0  0  0
  9 10  2  0  0  0
  9 16  1  0  0  0
 10 11  1  0  0  0
 10 28  1  0  0  0
 11 12  1  0  0  0
 11 13  2  0  0  0
 13 14  1  0  0  0
 13 29  1  0  0  0
 14 15  1  0  0  0
 14 16  2  0  0  0
 15 25  3  0  0  0
 16 30  1  0  0  0
 17 18  2  0  0  0
 17 19  2  0  0  0
 17 20  1  0  0  0
 20 21  1  0  0  0
 20 22  1  0  0  0
 20 31  1  0  0  0
 23 24  3  0  0  0
M  END
> <ID>
30

> <IC50[uM](SPA)>
0.018

$$$$
