DMP.pdb
 OpenBabel12022121263D

 80 84  0  0  1  0  0  0  0  0999 V2000
    1.2870   -5.8370   -5.4640 C   0  0  0  0  0  0  0  0  0  0  0  0
    1.2510   -3.5270   -6.4580 C   0  0  1  0  0  0  0  0  0  0  0  0
    0.7870   -2.6580   -5.2880 C   0  0  1  0  0  0  0  0  0  0  0  0
    1.4310   -2.9890   -3.9630 C   0  0  2  0  0  0  0  0  0  0  0  0
    1.1020   -4.3790   -3.4210 C   0  0  1  0  0  0  0  0  0  0  0  0
    0.1740   -5.5520   -7.5220 C   0  0  0  0  0  0  0  0  0  0  0  0
   -1.0010   -4.8190   -8.0300 C   0  0  0  0  0  0  0  0  0  0  0  0
   -1.3880   -4.9450   -9.3530 C   0  0  0  0  0  0  0  0  0  0  0  0
   -2.4920   -4.2510   -9.8210 C   0  0  0  0  0  0  0  0  0  0  0  0
   -3.2070   -3.4310   -8.9630 C   0  0  0  0  0  0  0  0  0  0  0  0
   -2.8200   -3.3060   -7.6430 C   0  0  0  0  0  0  0  0  0  0  0  0
   -1.7180   -3.9980   -7.1760 C   0  0  0  0  0  0  0  0  0  0  0  0
   -4.4030   -2.6760   -9.4620 C   0  0  0  0  0  0  0  0  0  0  0  0
    2.7300   -3.4750   -6.8310 C   0  0  0  0  0  0  0  0  0  0  0  0
    2.9470   -3.7610   -8.2940 C   0  0  0  0  0  0  0  0  0  0  0  0
    3.9260   -4.6640   -8.6660 C   0  0  0  0  0  0  0  0  0  0  0  0
    4.1310   -4.9530   -9.9980 C   0  0  0  0  0  0  0  0  0  0  0  0
    3.3580   -4.3390  -10.9630 C   0  0  0  0  0  0  0  0  0  0  0  0
    2.3770   -3.4320  -10.5960 C   0  0  0  0  0  0  0  0  0  0  0  0
    2.1690   -3.1440   -9.2580 C   0  0  0  0  0  0  0  0  0  0  0  0
   -0.3610   -4.6870   -3.1140 C   0  0  0  0  0  0  0  0  0  0  0  0
   -0.4980   -5.7060   -2.0130 C   0  0  0  0  0  0  0  0  0  0  0  0
   -1.3450   -6.7830   -2.1920 C   0  0  0  0  0  0  0  0  0  0  0  0
   -1.4740   -7.7370   -1.2060 C   0  0  0  0  0  0  0  0  0  0  0  0
   -0.7570   -7.6160   -0.0340 C   0  0  0  0  0  0  0  0  0  0  0  0
    0.0930   -6.5370    0.1540 C   0  0  0  0  0  0  0  0  0  0  0  0
    0.2240   -5.5810   -0.8390 C   0  0  0  0  0  0  0  0  0  0  0  0
    2.4300   -6.5300   -3.5260 C   0  0  0  0  0  0  0  0  0  0  0  0
    3.5390   -6.0350   -2.6890 C   0  0  0  0  0  0  0  0  0  0  0  0
    3.9820   -6.7700   -1.6010 C   0  0  0  0  0  0  0  0  0  0  0  0
    5.0280   -6.2950   -0.8260 C   0  0  0  0  0  0  0  0  0  0  0  0
    5.6280   -5.0860   -1.1390 C   0  0  0  0  0  0  0  0  0  0  0  0
    5.1850   -4.3530   -2.2240 C   0  0  0  0  0  0  0  0  0  0  0  0
    4.1420   -4.8260   -2.9990 C   0  0  0  0  0  0  0  0  0  0  0  0
    6.7610   -4.5680   -0.3030 C   0  0  0  0  0  0  0  0  0  0  0  0
    0.8710   -4.9570   -6.3850 N   0  0  0  0  0  0  0  0  0  0  0  0
    1.6330   -5.5160   -4.2100 N   0  0  0  0  0  0  0  0  0  0  0  0
    1.3580   -7.0130   -5.7920 O   0  0  0  0  0  0  0  0  0  0  0  0
    1.0440   -1.3470   -5.6430 O   0  0  0  0  0  0  0  0  0  0  0  0
    1.0440   -2.0840   -2.9920 O   0  0  0  0  0  0  0  0  0  0  0  0
   -4.0310   -1.8430  -10.5500 O   0  0  0  0  0  0  0  0  0  0  0  0
    6.2750   -4.1440    0.9620 O   0  0  0  0  0  0  0  0  0  0  0  0
    0.7240   -3.1370   -7.3290 H   0  0  0  0  0  0  0  0  0  0  0  0
   -0.2910   -2.7770   -5.1820 H   0  0  0  0  0  0  0  0  0  0  0  0
    2.5120   -2.9180   -4.0830 H   0  0  0  0  0  0  0  0  0  0  0  0
    1.6120   -4.4370   -2.4600 H   0  0  0  0  0  0  0  0  0  0  0  0
    0.8820   -5.7050   -8.3370 H   0  0  0  0  0  0  0  0  0  0  0  0
   -0.1200   -6.5710   -7.2700 H   0  0  0  0  0  0  0  0  0  0  0  0
   -0.8290   -5.5840  -10.0210 H   0  0  0  0  0  0  0  0  0  0  0  0
   -2.7940   -4.3500  -10.8530 H   0  0  0  0  0  0  0  0  0  0  0  0
   -3.3780   -2.6670   -6.9750 H   0  0  0  0  0  0  0  0  0  0  0  0
   -1.4170   -3.8980   -6.1440 H   0  0  0  0  0  0  0  0  0  0  0  0
   -4.8070   -2.0630   -8.6570 H   0  0  0  0  0  0  0  0  0  0  0  0
   -5.1670   -3.3810   -9.7890 H   0  0  0  0  0  0  0  0  0  0  0  0
    3.2800   -4.2020   -6.2340 H   0  0  0  0  0  0  0  0  0  0  0  0
    3.1300   -2.4900   -6.5910 H   0  0  0  0  0  0  0  0  0  0  0  0
    4.5320   -5.1450   -7.9120 H   0  0  0  0  0  0  0  0  0  0  0  0
    4.8960   -5.6590  -10.2860 H   0  0  0  0  0  0  0  0  0  0  0  0
    3.5170   -4.5650  -12.0070 H   0  0  0  0  0  0  0  0  0  0  0  0
    1.7760   -2.9510  -11.3530 H   0  0  0  0  0  0  0  0  0  0  0  0
    1.4030   -2.4410   -8.9650 H   0  0  0  0  0  0  0  0  0  0  0  0
   -0.8500   -5.0580   -4.0150 H   0  0  0  0  0  0  0  0  0  0  0  0
   -0.8720   -3.7690   -2.8240 H   0  0  0  0  0  0  0  0  0  0  0  0
   -1.9090   -6.8800   -3.1080 H   0  0  0  0  0  0  0  0  0  0  0  0
   -2.1360   -8.5780   -1.3520 H   0  0  0  0  0  0  0  0  0  0  0  0
   -0.8570   -8.3630    0.7400 H   0  0  0  0  0  0  0  0  0  0  0  0
    0.6510   -6.4430    1.0740 H   0  0  0  0  0  0  0  0  0  0  0  0
    0.8870   -4.7400   -0.7000 H   0  0  0  0  0  0  0  0  0  0  0  0
    1.7740   -7.1540   -2.9200 H   0  0  0  0  0  0  0  0  0  0  0  0
    2.8210   -7.2350   -4.2600 H   0  0  0  0  0  0  0  0  0  0  0  0
    3.5120   -7.7120   -1.3580 H   0  0  0  0  0  0  0  0  0  0  0  0
    5.3750   -6.8670    0.0220 H   0  0  0  0  0  0  0  0  0  0  0  0
    5.6530   -3.4110   -2.4670 H   0  0  0  0  0  0  0  0  0  0  0  0
    3.7970   -4.2520   -3.8470 H   0  0  0  0  0  0  0  0  0  0  0  0
    7.2320   -3.7270   -0.8110 H   0  0  0  0  0  0  0  0  0  0  0  0
    7.4990   -5.3580   -0.1620 H   0  0  0  0  0  0  0  0  0  0  0  0
    0.7670   -0.7630   -4.9340 H   0  0  0  0  0  0  0  0  0  0  0  0
    1.4630   -2.3100   -2.1580 H   0  0  0  0  0  0  0  0  0  0  0  0
   -4.8010   -1.3630  -10.8640 H   0  0  0  0  0  0  0  0  0  0  0  0
    7.0050   -3.8140    1.4910 H   0  0  0  0  0  0  0  0  0  0  0  0
  1 37  1  0  0  0  0
  2 43  1  6  0  0  0
  2 36  1  0  0  0  0
  2  3  1  0  0  0  0
  3 44  1  1  0  0  0
  3  4  1  0  0  0  0
  4 45  1  6  0  0  0
  4  5  1  0  0  0  0
  4 40  1  0  0  0  0
  5 21  1  0  0  0  0
  5 46  1  1  0  0  0
  6 48  1  0  0  0  0
  6 36  1  0  0  0  0
  7  6  1  0  0  0  0
  7 12  1  0  0  0  0
  8  7  2  0  0  0  0
  9  8  1  0  0  0  0
  9 10  2  0  0  0  0
 10 11  1  0  0  0  0
 11 12  2  0  0  0  0
 11 51  1  0  0  0  0
 12 52  1  0  0  0  0
 13 10  1  0  0  0  0
 13 53  1  0  0  0  0
 14 56  1  0  0  0  0
 14  2  1  0  0  0  0
 14 55  1  0  0  0  0
 15 14  1  0  0  0  0
 16 15  1  0  0  0  0
 16 57  1  0  0  0  0
 17 16  2  0  0  0  0
 18 19  2  0  0  0  0
 18 17  1  0  0  0  0
 19 20  1  0  0  0  0
 20 61  1  0  0  0  0
 20 15  2  0  0  0  0
 21 63  1  0  0  0  0
 21 22  1  0  0  0  0
 22 27  1  0  0  0  0
 23 22  2  0  0  0  0
 23 24  1  0  0  0  0
 24 25  2  0  0  0  0
 25 26  1  0  0  0  0
 25 66  1  0  0  0  0
 26 67  1  0  0  0  0
 27 68  1  0  0  0  0
 27 26  2  0  0  0  0
 28 69  1  0  0  0  0
 28 29  1  0  0  0  0
 29 30  1  0  0  0  0
 30 71  1  0  0  0  0
 30 31  2  0  0  0  0
 31 72  1  0  0  0  0
 32 31  1  0  0  0  0
 32 35  1  0  0  0  0
 33 32  2  0  0  0  0
 34 29  2  0  0  0  0
 34 33  1  0  0  0  0
 35 76  1  0  0  0  0
 35 42  1  0  0  0  0
 36  1  1  0  0  0  0
 37 28  1  0  0  0  0
 37  5  1  0  0  0  0
 38  1  2  0  0  0  0
 39  3  1  0  0  0  0
 39 77  1  0  0  0  0
 40 78  1  0  0  0  0
 41 13  1  0  0  0  0
 42 80  1  0  0  0  0
 47  6  1  0  0  0  0
 49  8  1  0  0  0  0
 50  9  1  0  0  0  0
 54 13  1  0  0  0  0
 58 17  1  0  0  0  0
 59 18  1  0  0  0  0
 60 19  1  0  0  0  0
 62 21  1  0  0  0  0
 64 23  1  0  0  0  0
 65 24  1  0  0  0  0
 70 28  1  0  0  0  0
 73 33  1  0  0  0  0
 74 34  1  0  0  0  0
 75 35  1  0  0  0  0
 79 41  1  0  0  0  0
M  END
>  <TITLE>
    2 AVERAGE STRUCTURE

>  <MODEL>
       1

$$$$
