@<TRIPOS>MOLECULE
A:1UYD
    28    30     1     0     1
SMALL
NO_CHARGES
****
Generated from the CSD

@<TRIPOS>ATOM
     1 C19      4.4029  15.5285  26.5783   C.2       1 PU81224   0.0000
     2 O3       5.1219  15.0845  25.4523   O.3       1 PU81224   0.0000
     3 C5       5.0909  13.7865  24.8454   C.2       1 PU81224   0.0000
     4 C6       3.9589  13.1784  24.2904   C.3       1 PU81224   0.0000
     5 C4       6.3238  13.1534  24.7734   C.2       1 PU81224   0.0000
     6 O1       7.4368  13.8005  25.3623   O.3       1 PU81224   0.0000
     7 C7       7.9678  14.9825  24.7394   C.3       1 PU81224   0.0000
     8 C3       6.4648  11.9284  24.1654   C.2       1 PU81224   0.0000
     9 O2       7.7378  11.2764  24.1454   O.3       1 PU81224   0.0000
    10 C8       8.1248  10.3753  23.0914   C.3       1 PU81224   0.0000
    11 C2       5.3499  11.3264  23.6124   C.2       1 PU81224   0.0000
    12 C1       4.1059  11.9224  23.6554   C.2       1 PU81224   0.0000
    13 C9       2.9809  11.1344  22.9964   C.3       1 PU81224   0.0000
    14 C10      1.7990  10.8984  23.8964   C.2       1 PU81224   0.0000
    15 N1       0.5690  11.3434  23.6644   N.2       1 PU81224   0.0000
    16 C11     -0.1860  10.9434  24.6654   C.2       1 PU81224   0.0000
    17 C13     -1.5340  11.1214  24.9444   C.2       1 PU81224   0.0000
    18 N5      -2.4389  11.8294  24.0324   N.3       1 PU81224   0.0000
    19 C12      0.6250  10.2703  25.5663   C.2       1 PU81224   0.0000
    20 N4       0.1180   9.7803  26.7163   N.2       1 PU81224   0.0000
    21 C14     -1.1950   9.9853  26.9463   C.2       1 PU81224   0.0000
    22 N3      -2.0040  10.6443  26.0883   N.2       1 PU81224   0.0000
    23 N2       1.8540  10.2513  25.0554   N.3       1 PU81224   0.0000
    24 C15      3.0529   9.6353  25.6373   C.3       1 PU81224   0.0000
    25 C16      2.9129   8.1313  25.6353   C.3       1 PU81224   0.0000
    26 C17      3.6439   7.2662  24.6114   C.3       1 PU81224   0.0000
    27 C18      4.6649   7.8943  23.6774   C.3       1 PU81224   0.0000
    28 CL       2.4189  14.0035  24.3664   Cl        1 PU81224   0.0000
@<TRIPOS>BOND
     1     1     2    1
     2     2     3    1
     3     3     4    1
     4     3     5   un
     5     5     6    1
     6     6     7    1
     7     5     8   un
     8     8     9    1
     9     9    10    1
    10     8    11   un
    11     4    12    1
    12    11    12   un
    13    12    13    1
    14    13    14    1
    15    14    15   un
    16    15    16   un
    17    16    17   un
    18    17    18    1
    19    16    19   un
    20    19    20   un
    21    20    21   un
    22    17    22   un
    23    21    22   un
    24    14    23    1
    25    19    23    1
    26    23    24    1
    27    24    25    1
    28    25    26    1
    29    26    27    1
    30     4    28    1
@<TRIPOS>SUBSTRUCTURE
     1 PU81224     1 GROUP             0 A     PU8     0  
@<TRIPOS>SET
CCDC_LIGAND STATIC ATOMS
28 1 2 3 4 5 6 7 8 9 \
10 11 12 13 14 15 16 17 18 19 \
20 21 22 23 24 25 26 27 28 
