4:0
                    3D
 Schrodinger Suite 2020-4.
 43 46  0  0  1  0            999 V2000
    5.9343    8.1769   24.3526 C   0  0  0  0  0  0
    4.6163    7.4902   24.7504 C   0  0  0  0  0  0
    3.3701    8.3675   24.5391 C   0  0  0  0  0  0
    3.2651    9.5615   25.5107 C   0  0  0  0  0  0
    2.1960   10.4790   25.0832 N   0  0  0  0  0  0
    2.3106   11.5048   24.2134 C   0  0  0  0  0  0
    3.5639   11.9515   23.5446 C   0  0  0  0  0  0
    4.3142   12.9848   24.3673 C   0  0  0  0  0  0
    3.6753   14.1755   24.7751 C   0  0  0  0  0  0
    4.3393   15.1080   25.5814 C   0  0  0  0  0  0
    5.6487   14.8229   25.9372 C   0  0  0  0  0  0
    6.2839   13.6889   25.5166 C   0  0  0  0  0  0
    5.6493   12.7441   24.7235 C   0  0  0  0  0  0
    7.5302   13.6491   26.0475 O   0  0  0  0  0  0
    7.7288   14.9200   26.5941 C   0  0  0  0  0  0
    6.4767   15.5241   26.7481 O   0  0  0  0  0  0
    1.1803   12.1315   24.0167 N   0  0  0  0  0  0
    0.2787   11.4638   24.7478 C   0  0  0  0  0  0
   -1.1212   11.6049   24.8971 C   0  0  0  0  0  0
   -1.9088   12.4494   24.1293 N   0  0  0  0  0  0
   -1.7528   10.8493   25.8268 N   0  0  0  0  0  0
   -1.0215    9.9629   26.5036 C   0  0  0  0  0  0
    0.2622    9.6495   26.3479 N   0  0  0  0  0  0
    0.8849   10.4552   25.4667 C   0  0  0  0  0  0
    6.7782    7.4983   24.4790 H   0  0  0  0  0  0
    5.9196    8.4909   23.3079 H   0  0  0  0  0  0
    6.1321    9.0582   24.9628 H   0  0  0  0  0  0
    4.6615    7.1597   25.7888 H   0  0  0  0  0  0
    4.5068    6.5810   24.1579 H   0  0  0  0  0  0
    2.4796    7.7471   24.6566 H   0  0  0  0  0  0
    3.3548    8.7162   23.5051 H   0  0  0  0  0  0
    4.1777   10.1543   25.5612 H   0  0  0  0  0  0
    3.0202    9.2485   26.5268 H   0  0  0  0  0  0
    4.1861   11.1001   23.2662 H   0  0  0  0  0  0
    3.2883   12.4503   22.6201 H   0  0  0  0  0  0
    2.6518   14.3690   24.4891 H   0  0  0  0  0  0
    3.8473   16.0064   25.9216 H   0  0  0  0  0  0
    6.1556   11.8400   24.4201 H   0  0  0  0  0  0
    8.3173   15.5236   25.9018 H   0  0  0  0  0  0
    8.2470   14.8489   27.5481 H   0  0  0  0  0  0
   -1.4932   13.0388   23.4256 H   0  0  0  0  0  0
   -2.9065   12.4477   24.2919 H   0  0  0  0  0  0
   -1.5540    9.3737   27.2357 H   0  0  0  0  0  0
  1  2  1  0  0  0
  1 25  1  0  0  0
  1 26  1  0  0  0
  1 27  1  0  0  0
  2  3  1  0  0  0
  2 28  1  0  0  0
  2 29  1  0  0  0
  3  4  1  0  0  0
  3 30  1  0  0  0
  3 31  1  0  0  0
  4  5  1  0  0  0
  4 32  1  0  0  0
  4 33  1  0  0  0
  5 24  1  0  0  0
  5  6  1  0  0  0
  6  7  1  0  0  0
  6 17  2  0  0  0
  7  8  1  0  0  0
  7 34  1  0  0  0
  7 35  1  0  0  0
  8 13  1  0  0  0
  8  9  2  0  0  0
  9 10  1  0  0  0
  9 36  1  0  0  0
 10 11  2  0  0  0
 10 37  1  0  0  0
 11 16  1  0  0  0
 11 12  1  0  0  0
 12 13  2  0  0  0
 12 14  1  0  0  0
 13 38  1  0  0  0
 14 15  1  0  0  0
 15 16  1  0  0  0
 15 39  1  0  0  0
 15 40  1  0  0  0
 17 18  1  0  0  0
 18 24  2  0  0  0
 18 19  1  0  0  0
 19 20  1  0  0  0
 19 21  2  0  0  0
 20 41  1  0  0  0
 20 42  1  0  0  0
 21 22  1  0  0  0
 22 23  2  0  0  0
 22 43  1  0  0  0
 23 24  1  0  0  0
M  END
> <s_m_entry_id>
9

> <s_m_entry_name>
out_pv.2

> <s_m_Source_Path>
//1UYD/03_prep_map

> <s_m_Source_File>
out_pv.maegz

> <i_m_Source_File_Index>
2

> <s_m_source_file>
/tmp/tmpyr555pyi/0icjb2kpi.smi

> <i_m_source_file_index>
5

> <i_lp_mmshare_version>
52144

> <i_f3d_flags>
0

> <s_epik_input>
W05IMl1jMW5bY0hdbmMoYzEyKW4oW0NIMl1bQ0gyXVtDSDJdW0NIM10pYyhuMilbQ0gyXWMoW2NIXVtjSF0zKVtjSF1jKGMzNClPW0NIMl1PNA==

> <s_epik_cmdline>
J2VwaWtfcHl0aG9uJywgJy1waHQnLCAnMS4wJywgJy1waCcsICc3LjAnLCAnLXRuJywgJzgnLCAnLW1hJywgJzIwMCcsICctaW1hZScsICc8aW5maWxlLm1hZT4nLCAnLW9tYWUnLCAnPG91dGZpbGUubWFlPic=

> <r_lp_tautomer_probability>
1

> <r_epik_Ionization_Penalty>
0.00146126

> <r_epik_Ionization_Penalty_Charging>
0

> <r_epik_Ionization_Penalty_Neutral>
0.00146126

> <r_epik_State_Penalty>
0

> <r_epik_Charging_Adjusted_Penalty>
0

> <i_epik_Tot_Q>
0

> <i_epik_Tot_abs_Q>
0

> <s_epik_Chemistry_Notes>
This compound contains an acetal/aminal-like group ( X-CH(R)-Y where X, Y are N, S, or O) that may be acid/base labile, releasing an aldehyde.

> <s_lp_Force_Field>
OPLS_2005

> <r_lp_Energy>
24.5474

> <b_lp_Chiralities_Consistent>
1

> <s_lp_Variant>
4:0-1

> <s_i_glide_gridfile>
glide-grid_1

> <i_i_glide_lignum>
1

> <i_i_glide_rotatable_bonds>
5

> <r_i_docking_score>
-8.53753613124127

> <r_i_glide_ligand_efficiency>
-0.355730672135053

> <r_i_glide_ligand_efficiency_sa>
-1.02610481697689

> <r_i_glide_ligand_efficiency_ln>
-2.04342415821155

> <r_i_glide_gscore>
-8.53753613124127

> <r_i_glide_lipo>
-2.909585332357

> <r_i_glide_hbond>
-0.628205905812411

> <r_i_glide_metal>
0

> <r_i_glide_rewards>
-3.04320498637823

> <r_i_glide_evdw>
-33.9430084228516

> <r_i_glide_ecoul>
-6.44991636276245

> <r_i_glide_erotb>
0.708097968863318

> <r_i_glide_esite>
0

> <r_i_glide_emodel>
-57.6297111926234

> <r_i_glide_energy>
-40.392924785614

> <r_i_glide_einternal>
3.85575270652771

> <r_i_glide_intrahb_reward>
0

> <r_i_glide_emodel_strain>
0.0978431701660156

> <r_i_glide_gscore_strain>
0

> <i_i_glide_confnum>
24

> <i_i_glide_posenum>
338

> <r_i_glide_eff_state_penalty>
0

> <s_m_job_name>
glide-dock_SP_2

> <s_m_subgroup_title>
glide-dock_SP_2_pv1

> <s_m_subgroupid>
glide-dock_SP_2_pv1

> <b_m_subgroup_collapsed>
0

$$$$
4:1
                    3D
 Schrodinger Suite 2020-4.
 43 46  0  0  1  0            999 V2000
    6.6639   15.3506   25.8927 C   0  0  0  0  0  0
    5.3989   14.7133   26.4842 C   0  0  0  0  0  0
    4.0829   15.2165   25.8662 C   0  0  0  0  0  0
    3.8656   14.8030   24.3959 C   0  0  0  0  0  0
    3.5785   13.3735   24.2530 N   0  0  0  0  0  0
    4.4655   12.3664   24.0442 C   0  0  0  0  0  0
    5.9572   12.4927   23.8854 C   0  0  0  0  0  0
    6.6748   11.2019   23.5044 C   0  0  0  0  0  0
    7.5463   11.1934   22.4032 C   0  0  0  0  0  0
    8.2470   10.0367   22.0535 C   0  0  0  0  0  0
    8.0302    8.8973   22.8203 C   0  0  0  0  0  0
    7.1731    8.8934   23.8786 C   0  0  0  0  0  0
    6.4911   10.0319   24.2628 C   0  0  0  0  0  0
    7.1628    7.6742   24.4645 O   0  0  0  0  0  0
    7.9974    6.8747   23.6808 C   0  0  0  0  0  0
    8.6466    7.6920   22.7483 O   0  0  0  0  0  0
    3.8692   11.2099   23.9663 N   0  0  0  0  0  0
    2.5772   11.4706   24.1323 C   0  0  0  0  0  0
    1.4886   10.5996   24.1885 C   0  0  0  0  0  0
    1.7067    9.2493   24.0646 N   0  0  0  0  0  0
    0.2362   11.0998   24.3489 N   0  0  0  0  0  0
    0.1222   12.4325   24.4120 C   0  0  0  0  0  0
    1.0912   13.3670   24.3455 N   0  0  0  0  0  0
    2.3283   12.8114   24.2526 C   0  0  0  0  0  0
    7.5629   15.0111   26.4072 H   0  0  0  0  0  0
    6.7844   15.1538   24.8293 H   0  0  0  0  0  0
    6.6223   16.4283   26.0121 H   0  0  0  0  0  0
    5.3929   14.9108   27.5479 H   0  0  0  0  0  0
    5.4433   13.6322   26.4458 H   0  0  0  0  0  0
    4.0486   16.3048   25.9480 H   0  0  0  0  0  0
    3.2532   14.8497   26.4727 H   0  0  0  0  0  0
    4.7321   15.0099   23.7751 H   0  0  0  0  0  0
    3.0006   15.2810   23.9467 H   0  0  0  0  0  0
    6.1748   13.2595   23.1481 H   0  0  0  0  0  0
    6.4209   12.8158   24.8095 H   0  0  0  0  0  0
    7.7008   12.0939   21.8291 H   0  0  0  0  0  0
    8.9476   10.0500   21.2320 H   0  0  0  0  0  0
    5.8438   10.0181   25.1273 H   0  0  0  0  0  0
    7.4166    6.1071   23.1659 H   0  0  0  0  0  0
    8.7417    6.4639   24.3469 H   0  0  0  0  0  0
    2.6599    8.9251   23.9878 H   0  0  0  0  0  0
    0.9335    8.5889   24.1648 H   0  0  0  0  0  0
   -0.8871   12.8075   24.4995 H   0  0  0  0  0  0
  1  2  1  0  0  0
  1 25  1  0  0  0
  1 26  1  0  0  0
  1 27  1  0  0  0
  2  3  1  0  0  0
  2 28  1  0  0  0
  2 29  1  0  0  0
  3  4  1  0  0  0
  3 30  1  0  0  0
  3 31  1  0  0  0
  4  5  1  0  0  0
  4 32  1  0  0  0
  4 33  1  0  0  0
  5 24  1  0  0  0
  5  6  1  0  0  0
  6  7  1  0  0  0
  6 17  2  0  0  0
  7  8  1  0  0  0
  7 34  1  0  0  0
  7 35  1  0  0  0
  8 13  1  0  0  0
  8  9  2  0  0  0
  9 10  1  0  0  0
  9 36  1  0  0  0
 10 11  2  0  0  0
 10 37  1  0  0  0
 11 16  1  0  0  0
 11 12  1  0  0  0
 12 13  2  0  0  0
 12 14  1  0  0  0
 13 38  1  0  0  0
 14 15  1  0  0  0
 15 16  1  0  0  0
 15 39  1  0  0  0
 15 40  1  0  0  0
 17 18  1  0  0  0
 18 24  2  0  0  0
 18 19  1  0  0  0
 19 20  1  0  0  0
 19 21  2  0  0  0
 20 41  1  0  0  0
 20 42  1  0  0  0
 21 22  1  0  0  0
 22 23  2  0  0  0
 22 43  1  0  0  0
 23 24  1  0  0  0
M  END
> <s_m_entry_id>
10

> <s_m_entry_name>
out_pv.2

> <s_m_Source_Path>
/home//03_prep_map

> <s_m_Source_File>
out_pv.maegz

> <i_m_Source_File_Index>
2

> <s_m_source_file>
/tmp/tmpyr555pyi/0icjb2kpi.smi

> <i_m_source_file_index>
5

> <i_lp_mmshare_version>
52144

> <i_f3d_flags>
0

> <s_epik_input>
W05IMl1jMW5bY0hdbmMoYzEyKW4oW0NIMl1bQ0gyXVtDSDJdW0NIM10pYyhuMilbQ0gyXWMoW2NIXVtjSF0zKVtjSF1jKGMzNClPW0NIMl1PNA==

> <s_epik_cmdline>
J2VwaWtfcHl0aG9uJywgJy1waHQnLCAnMS4wJywgJy1waCcsICc3LjAnLCAnLXRuJywgJzgnLCAnLW1hJywgJzIwMCcsICctaW1hZScsICc8aW5maWxlLm1hZT4nLCAnLW9tYWUnLCAnPG91dGZpbGUubWFlPic=

> <r_lp_tautomer_probability>
1

> <r_epik_Ionization_Penalty>
0.00146126

> <r_epik_Ionization_Penalty_Charging>
0

> <r_epik_Ionization_Penalty_Neutral>
0.00146126

> <r_epik_State_Penalty>
0

> <r_epik_Charging_Adjusted_Penalty>
0

> <i_epik_Tot_Q>
0

> <i_epik_Tot_abs_Q>
0

> <s_epik_Chemistry_Notes>
This compound contains an acetal/aminal-like group ( X-CH(R)-Y where X, Y are N, S, or O) that may be acid/base labile, releasing an aldehyde.

> <s_lp_Force_Field>
OPLS_2005

> <r_lp_Energy>
24.5474

> <b_lp_Chiralities_Consistent>
1

> <s_lp_Variant>
4:1-1

> <s_i_glide_gridfile>
glide-grid_1

> <i_i_glide_lignum>
1

> <i_i_glide_rotatable_bonds>
5

> <r_i_docking_score>
-8.36120391183649

> <r_i_glide_ligand_efficiency>
-0.34838349632652

> <r_i_glide_ligand_efficiency_sa>
-1.00491189469368

> <r_i_glide_ligand_efficiency_ln>
-2.00121976674967

> <r_i_glide_gscore>
-8.36120391183649

> <r_i_glide_lipo>
-3.38476579115554

> <r_i_glide_hbond>
-0.608

> <r_i_glide_metal>
0

> <r_i_glide_rewards>
-2.6965456440443

> <r_i_glide_evdw>
-28.2540264129639

> <r_i_glide_ecoul>
-5.84958934783936

> <r_i_glide_erotb>
0.708097968863318

> <r_i_glide_esite>
-0.0898507226758702

> <r_i_glide_emodel>
-52.4198963237621

> <r_i_glide_energy>
-34.1036157608032

> <r_i_glide_einternal>
0.905119717121124

> <r_i_glide_intrahb_reward>
0

> <r_i_glide_emodel_strain>
0.0978431701660156

> <r_i_glide_gscore_strain>
0

> <i_i_glide_confnum>
14

> <i_i_glide_posenum>
45

> <r_i_glide_eff_state_penalty>
0

> <s_m_job_name>
glide-dock_SP_2

> <s_m_subgroup_title>
glide-dock_SP_2_pv1

> <s_m_subgroupid>
glide-dock_SP_2_pv1

> <b_m_subgroup_collapsed>
0

$$$$
4:2
                    3D
 Schrodinger Suite 2020-4.
 43 46  0  0  1  0            999 V2000
    7.6264   14.9792   26.1190 C   0  0  0  0  0  0
    6.2250   14.7175   26.6901 C   0  0  0  0  0  0
    5.0964   15.4725   25.9570 C   0  0  0  0  0  0
    4.8892   15.0598   24.4841 C   0  0  0  0  0  0
    4.2275   13.7474   24.3487 N   0  0  0  0  0  0
    4.7976   12.5362   24.1533 C   0  0  0  0  0  0
    6.2734   12.3497   23.9415 C   0  0  0  0  0  0
    6.7402   10.9383   23.6135 C   0  0  0  0  0  0
    7.7168   10.7455   22.6188 C   0  0  0  0  0  0
    8.2465    9.4744   22.3701 C   0  0  0  0  0  0
    7.7761    8.4213   23.1479 C   0  0  0  0  0  0
    6.7952    8.5961   24.0781 C   0  0  0  0  0  0
    6.2646    9.8405   24.3480 C   0  0  0  0  0  0
    6.4989    7.4126   24.6654 O   0  0  0  0  0  0
    7.1080    6.4707   23.8382 C   0  0  0  0  0  0
    8.1514    7.1154   23.1571 O   0  0  0  0  0  0
    3.9124   11.5654   24.1399 N   0  0  0  0  0  0
    2.7279   12.1703   24.2752 C   0  0  0  0  0  0
    1.4119   11.6615   24.3473 C   0  0  0  0  0  0
    1.1111   10.3055   24.3484 N   0  0  0  0  0  0
    0.3809   12.5459   24.3482 N   0  0  0  0  0  0
    0.6808   13.8524   24.3477 C   0  0  0  0  0  0
    1.8796   14.4497   24.3479 N   0  0  0  0  0  0
    2.8801   13.5410   24.3219 C   0  0  0  0  0  0
    8.3812   14.4489   26.7002 H   0  0  0  0  0  0
    7.7355   14.6621   25.0832 H   0  0  0  0  0  0
    7.8595   16.0430   26.1522 H   0  0  0  0  0  0
    6.2476   15.0248   27.7330 H   0  0  0  0  0  0
    6.0111   13.6496   26.7112 H   0  0  0  0  0  0
    5.3200   16.5394   25.9904 H   0  0  0  0  0  0
    4.1599   15.3570   26.5060 H   0  0  0  0  0  0
    5.8309   15.0082   23.9480 H   0  0  0  0  0  0
    4.2497   15.7615   23.9516 H   0  0  0  0  0  0
    6.6034   13.0227   23.1497 H   0  0  0  0  0  0
    6.8034   12.6391   24.8442 H   0  0  0  0  0  0
    8.0809   11.5871   22.0514 H   0  0  0  0  0  0
    9.0009    9.3294   21.6141 H   0  0  0  0  0  0
    5.5375    9.9546   25.1380 H   0  0  0  0  0  0
    6.3862    6.0751   23.1188 H   0  0  0  0  0  0
    7.4473    5.6494   24.4475 H   0  0  0  0  0  0
    1.8645    9.6330   24.3843 H   0  0  0  0  0  0
    0.1472   10.0178   24.4150 H   0  0  0  0  0  0
   -0.1527   14.5334   24.3241 H   0  0  0  0  0  0
  1  2  1  0  0  0
  1 25  1  0  0  0
  1 26  1  0  0  0
  1 27  1  0  0  0
  2  3  1  0  0  0
  2 28  1  0  0  0
  2 29  1  0  0  0
  3  4  1  0  0  0
  3 30  1  0  0  0
  3 31  1  0  0  0
  4  5  1  0  0  0
  4 32  1  0  0  0
  4 33  1  0  0  0
  5 24  1  0  0  0
  5  6  1  0  0  0
  6  7  1  0  0  0
  6 17  2  0  0  0
  7  8  1  0  0  0
  7 34  1  0  0  0
  7 35  1  0  0  0
  8 13  1  0  0  0
  8  9  2  0  0  0
  9 10  1  0  0  0
  9 36  1  0  0  0
 10 11  2  0  0  0
 10 37  1  0  0  0
 11 16  1  0  0  0
 11 12  1  0  0  0
 12 13  2  0  0  0
 12 14  1  0  0  0
 13 38  1  0  0  0
 14 15  1  0  0  0
 15 16  1  0  0  0
 15 39  1  0  0  0
 15 40  1  0  0  0
 17 18  1  0  0  0
 18 24  2  0  0  0
 18 19  1  0  0  0
 19 20  1  0  0  0
 19 21  2  0  0  0
 20 41  1  0  0  0
 20 42  1  0  0  0
 21 22  1  0  0  0
 22 23  2  0  0  0
 22 43  1  0  0  0
 23 24  1  0  0  0
M  END
> <s_m_entry_id>
11

> <s_m_entry_name>
out_pv.2

> <s_m_Source_Path>
/home//03_prep_map

> <s_m_Source_File>
out_pv.maegz

> <i_m_Source_File_Index>
2

> <s_m_source_file>
/tmp/tmpyr555pyi/0icjb2kpi.smi

> <i_m_source_file_index>
5

> <i_lp_mmshare_version>
52144

> <i_f3d_flags>
0

> <s_epik_input>
W05IMl1jMW5bY0hdbmMoYzEyKW4oW0NIMl1bQ0gyXVtDSDJdW0NIM10pYyhuMilbQ0gyXWMoW2NIXVtjSF0zKVtjSF1jKGMzNClPW0NIMl1PNA==

> <s_epik_cmdline>
J2VwaWtfcHl0aG9uJywgJy1waHQnLCAnMS4wJywgJy1waCcsICc3LjAnLCAnLXRuJywgJzgnLCAnLW1hJywgJzIwMCcsICctaW1hZScsICc8aW5maWxlLm1hZT4nLCAnLW9tYWUnLCAnPG91dGZpbGUubWFlPic=

> <r_lp_tautomer_probability>
1

> <r_epik_Ionization_Penalty>
0.00146126

> <r_epik_Ionization_Penalty_Charging>
0

> <r_epik_Ionization_Penalty_Neutral>
0.00146126

> <r_epik_State_Penalty>
0

> <r_epik_Charging_Adjusted_Penalty>
0

> <i_epik_Tot_Q>
0

> <i_epik_Tot_abs_Q>
0

> <s_epik_Chemistry_Notes>
This compound contains an acetal/aminal-like group ( X-CH(R)-Y where X, Y are N, S, or O) that may be acid/base labile, releasing an aldehyde.

> <s_lp_Force_Field>
OPLS_2005

> <r_lp_Energy>
24.5474

> <b_lp_Chiralities_Consistent>
1

> <s_lp_Variant>
4:2-1

> <s_i_glide_gridfile>
glide-grid_1

> <i_i_glide_lignum>
1

> <i_i_glide_rotatable_bonds>
5

> <r_i_docking_score>
-7.57765949147691

> <r_i_glide_ligand_efficiency>
-0.315735812144871

> <r_i_glide_ligand_efficiency_sa>
-0.91073967782841

> <r_i_glide_ligand_efficiency_ln>
-1.813681632447

> <r_i_glide_gscore>
-7.57765949147691

> <r_i_glide_lipo>
-3.09146097590047

> <r_i_glide_hbond>
-0.32

> <r_i_glide_metal>
0

> <r_i_glide_rewards>
-3.01804607759982

> <r_i_glide_evdw>
-30.5801696777344

> <r_i_glide_ecoul>
-1.96610343456268

> <r_i_glide_erotb>
0.708097968863318

> <r_i_glide_esite>
-0.0323264077688228

> <r_i_glide_emodel>
-49.0273001979427

> <r_i_glide_energy>
-32.5462731122971

> <r_i_glide_einternal>
1.05789875984192

> <r_i_glide_intrahb_reward>
0

> <r_i_glide_emodel_strain>
0.0978431701660156

> <r_i_glide_gscore_strain>
0

> <i_i_glide_confnum>
14

> <i_i_glide_posenum>
9

> <r_i_glide_eff_state_penalty>
0

> <s_m_job_name>
glide-dock_SP_2

> <s_m_subgroup_title>
glide-dock_SP_2_pv1

> <s_m_subgroupid>
glide-dock_SP_2_pv1

> <b_m_subgroup_collapsed>
0

$$$$
4:3
                    3D
 Schrodinger Suite 2020-4.
 43 46  0  0  1  0            999 V2000
    4.7544   15.3274   26.3125 C   0  0  0  0  0  0
    4.3282   14.1072   25.4840 C   0  0  0  0  0  0
    3.1283   14.4085   24.5715 C   0  0  0  0  0  0
    2.6607   13.2860   23.6275 C   0  0  0  0  0  0
    2.1382   12.0837   24.3200 N   0  0  0  0  0  0
    2.8199   10.9769   24.7064 C   0  0  0  0  0  0
    4.2927   10.8459   24.4275 C   0  0  0  0  0  0
    4.9892    9.4960   24.3014 C   0  0  0  0  0  0
    4.4124    8.2366   24.5831 C   0  0  0  0  0  0
    5.1500    7.0547   24.4030 C   0  0  0  0  0  0
    6.4576    7.1725   23.9420 C   0  0  0  0  0  0
    7.0071    8.3869   23.6603 C   0  0  0  0  0  0
    6.3104    9.5647   23.8353 C   0  0  0  0  0  0
    8.2472    8.2282   23.1479 O   0  0  0  0  0  0
    8.5560    6.8824   23.3419 C   0  0  0  0  0  0
    7.3612    6.2032   23.6415 O   0  0  0  0  0  0
    2.0629   10.1314   25.3719 N   0  0  0  0  0  0
    0.8264   10.6654   25.3248 C   0  0  0  0  0  0
   -0.4187   10.2722   25.8707 C   0  0  0  0  0  0
   -0.5528    9.2495   26.7847 N   0  0  0  0  0  0
   -1.5413   10.9617   25.5486 N   0  0  0  0  0  0
   -1.3888   12.0495   24.7893 C   0  0  0  0  0  0
   -0.2539   12.6117   24.3479 N   0  0  0  0  0  0
    0.8300   11.8528   24.6287 C   0  0  0  0  0  0
    5.5947   15.0823   26.9629 H   0  0  0  0  0  0
    5.0638   16.1559   25.6735 H   0  0  0  0  0  0
    3.9372   15.6801   26.9426 H   0  0  0  0  0  0
    4.0909   13.2912   26.1630 H   0  0  0  0  0  0
    5.1739   13.7768   24.8794 H   0  0  0  0  0  0
    3.4114   15.2496   23.9479 H   0  0  0  0  0  0
    2.2775   14.7605   25.1479 H   0  0  0  0  0  0
    3.4317   12.9665   22.9344 H   0  0  0  0  0  0
    1.8472   13.6761   23.0256 H   0  0  0  0  0  0
    4.4951   11.2999   23.4608 H   0  0  0  0  0  0
    4.8461   11.4374   25.1479 H   0  0  0  0  0  0
    3.3974    8.1430   24.9329 H   0  0  0  0  0  0
    4.7042    6.0926   24.6066 H   0  0  0  0  0  0
    6.7696   10.5121   23.5934 H   0  0  0  0  0  0
    9.2341    6.8495   24.1899 H   0  0  0  0  0  0
    9.0411    6.4605   22.4601 H   0  0  0  0  0  0
    0.3128    8.8495   27.1469 H   0  0  0  0  0  0
   -1.4357    9.1115   27.2478 H   0  0  0  0  0  0
   -2.2981   12.5827   24.5520 H   0  0  0  0  0  0
  1  2  1  0  0  0
  1 25  1  0  0  0
  1 26  1  0  0  0
  1 27  1  0  0  0
  2  3  1  0  0  0
  2 28  1  0  0  0
  2 29  1  0  0  0
  3  4  1  0  0  0
  3 30  1  0  0  0
  3 31  1  0  0  0
  4  5  1  0  0  0
  4 32  1  0  0  0
  4 33  1  0  0  0
  5 24  1  0  0  0
  5  6  1  0  0  0
  6  7  1  0  0  0
  6 17  2  0  0  0
  7  8  1  0  0  0
  7 34  1  0  0  0
  7 35  1  0  0  0
  8 13  1  0  0  0
  8  9  2  0  0  0
  9 10  1  0  0  0
  9 36  1  0  0  0
 10 11  2  0  0  0
 10 37  1  0  0  0
 11 16  1  0  0  0
 11 12  1  0  0  0
 12 13  2  0  0  0
 12 14  1  0  0  0
 13 38  1  0  0  0
 14 15  1  0  0  0
 15 16  1  0  0  0
 15 39  1  0  0  0
 15 40  1  0  0  0
 17 18  1  0  0  0
 18 24  2  0  0  0
 18 19  1  0  0  0
 19 20  1  0  0  0
 19 21  2  0  0  0
 20 41  1  0  0  0
 20 42  1  0  0  0
 21 22  1  0  0  0
 22 23  2  0  0  0
 22 43  1  0  0  0
 23 24  1  0  0  0
M  END
> <s_m_entry_id>
12

> <s_m_entry_name>
out_pv.2

> <s_m_Source_Path>
/home//03_prep_map

> <s_m_Source_File>
out_pv.maegz

> <i_m_Source_File_Index>
2

> <s_m_source_file>
/tmp/tmpyr555pyi/0icjb2kpi.smi

> <i_m_source_file_index>
5

> <i_lp_mmshare_version>
52144

> <i_f3d_flags>
0

> <s_epik_input>
W05IMl1jMW5bY0hdbmMoYzEyKW4oW0NIMl1bQ0gyXVtDSDJdW0NIM10pYyhuMilbQ0gyXWMoW2NIXVtjSF0zKVtjSF1jKGMzNClPW0NIMl1PNA==

> <s_epik_cmdline>
J2VwaWtfcHl0aG9uJywgJy1waHQnLCAnMS4wJywgJy1waCcsICc3LjAnLCAnLXRuJywgJzgnLCAnLW1hJywgJzIwMCcsICctaW1hZScsICc8aW5maWxlLm1hZT4nLCAnLW9tYWUnLCAnPG91dGZpbGUubWFlPic=

> <r_lp_tautomer_probability>
1

> <r_epik_Ionization_Penalty>
0.00146126

> <r_epik_Ionization_Penalty_Charging>
0

> <r_epik_Ionization_Penalty_Neutral>
0.00146126

> <r_epik_State_Penalty>
0

> <r_epik_Charging_Adjusted_Penalty>
0

> <i_epik_Tot_Q>
0

> <i_epik_Tot_abs_Q>
0

> <s_epik_Chemistry_Notes>
This compound contains an acetal/aminal-like group ( X-CH(R)-Y where X, Y are N, S, or O) that may be acid/base labile, releasing an aldehyde.

> <s_lp_Force_Field>
OPLS_2005

> <r_lp_Energy>
24.5474

> <b_lp_Chiralities_Consistent>
1

> <s_lp_Variant>
4:3-1

> <s_i_glide_gridfile>
glide-grid_1

> <i_i_glide_lignum>
1

> <i_i_glide_rotatable_bonds>
5

> <r_i_docking_score>
-7.28170887743729

> <r_i_glide_ligand_efficiency>
-0.303404536559887

> <r_i_glide_ligand_efficiency_sa>
-0.875170124038519

> <r_i_glide_ligand_efficiency_ln>
-1.74284707021855

> <r_i_glide_gscore>
-7.28170887743729

> <r_i_glide_lipo>
-2.8861009863893

> <r_i_glide_hbond>
-0.672573603632348

> <r_i_glide_metal>
0

> <r_i_glide_rewards>
-1.95127860772036

> <r_i_glide_evdw>
-36.3834457397461

> <r_i_glide_ecoul>
-4.05438995361328

> <r_i_glide_erotb>
0.708097968863318

> <r_i_glide_esite>
-0.0525228685293064

> <r_i_glide_emodel>
-54.5995246512212

> <r_i_glide_energy>
-40.4378356933594

> <r_i_glide_einternal>
4.3679027557373

> <r_i_glide_intrahb_reward>
0

> <r_i_glide_emodel_strain>
0.0978431701660156

> <r_i_glide_gscore_strain>
0

> <i_i_glide_confnum>
23

> <i_i_glide_posenum>
85

> <r_i_glide_eff_state_penalty>
0

> <s_m_job_name>
glide-dock_SP_2

> <s_m_subgroup_title>
glide-dock_SP_2_pv1

> <s_m_subgroupid>
glide-dock_SP_2_pv1

> <b_m_subgroup_collapsed>
0

$$$$
4:4
                    3D
 Schrodinger Suite 2020-4.
 43 46  0  0  1  0            999 V2000
    5.3587   15.8288   26.3479 C   0  0  0  0  0  0
    5.6920   14.3730   26.7109 C   0  0  0  0  0  0
    6.7122   13.7173   25.7556 C   0  0  0  0  0  0
    6.2087   13.4894   24.3130 C   0  0  0  0  0  0
    5.0554   12.5643   24.2576 N   0  0  0  0  0  0
    5.0835   11.2130   24.1471 C   0  0  0  0  0  0
    6.3667   10.4381   24.0050 C   0  0  0  0  0  0
    6.3394    8.9037   24.1034 C   0  0  0  0  0  0
    7.4275    8.2014   23.5479 C   0  0  0  0  0  0
    7.4819    6.8021   23.5683 C   0  0  0  0  0  0
    6.4250    6.1255   24.1619 C   0  0  0  0  0  0
    5.3845    6.7900   24.7403 C   0  0  0  0  0  0
    5.3150    8.1771   24.7479 C   0  0  0  0  0  0
    4.5315    5.8924   25.2988 O   0  0  0  0  0  0
    4.9423    4.6425   24.8157 C   0  0  0  0  0  0
    6.2462    4.7878   24.3181 O   0  0  0  0  0  0
    3.8803   10.6900   24.1349 N   0  0  0  0  0  0
    3.0444   11.7278   24.2632 C   0  0  0  0  0  0
    1.6359   11.7955   24.3479 C   0  0  0  0  0  0
    0.8063   10.6805   24.3599 N   0  0  0  0  0  0
    1.0483   13.0198   24.3479 N   0  0  0  0  0  0
    1.8472   14.0977   24.3368 C   0  0  0  0  0  0
    3.1841   14.1582   24.3479 N   0  0  0  0  0  0
    3.7368   12.9224   24.2942 C   0  0  0  0  0  0
    4.5912   16.2408   27.0026 H   0  0  0  0  0  0
    6.2472   16.4495   26.4391 H   0  0  0  0  0  0
    4.9902   15.9306   25.3283 H   0  0  0  0  0  0
    4.7758   13.7832   26.7548 H   0  0  0  0  0  0
    6.0950   14.3497   27.7225 H   0  0  0  0  0  0
    7.0472   12.7709   26.1783 H   0  0  0  0  0  0
    7.6067   14.3413   25.7179 H   0  0  0  0  0  0
    6.9835   13.0760   23.6666 H   0  0  0  0  0  0
    5.8738   14.4214   23.8594 H   0  0  0  0  0  0
    6.7966   10.7029   23.0381 H   0  0  0  0  0  0
    7.0734   10.7986   24.7479 H   0  0  0  0  0  0
    8.2331    8.7417   23.0725 H   0  0  0  0  0  0
    8.3091    6.2774   23.1163 H   0  0  0  0  0  0
    4.4940    8.6544   25.2568 H   0  0  0  0  0  0
    4.2764    4.3387   24.0045 H   0  0  0  0  0  0
    4.9084    3.8941   25.6080 H   0  0  0  0  0  0
    1.2197    9.7587   24.3972 H   0  0  0  0  0  0
   -0.1892   10.8198   24.4377 H   0  0  0  0  0  0
    1.3404   15.0519   24.3479 H   0  0  0  0  0  0
  1  2  1  0  0  0
  1 25  1  0  0  0
  1 26  1  0  0  0
  1 27  1  0  0  0
  2  3  1  0  0  0
  2 28  1  0  0  0
  2 29  1  0  0  0
  3  4  1  0  0  0
  3 30  1  0  0  0
  3 31  1  0  0  0
  4  5  1  0  0  0
  4 32  1  0  0  0
  4 33  1  0  0  0
  5 24  1  0  0  0
  5  6  1  0  0  0
  6  7  1  0  0  0
  6 17  2  0  0  0
  7  8  1  0  0  0
  7 34  1  0  0  0
  7 35  1  0  0  0
  8 13  1  0  0  0
  8  9  2  0  0  0
  9 10  1  0  0  0
  9 36  1  0  0  0
 10 11  2  0  0  0
 10 37  1  0  0  0
 11 16  1  0  0  0
 11 12  1  0  0  0
 12 13  2  0  0  0
 12 14  1  0  0  0
 13 38  1  0  0  0
 14 15  1  0  0  0
 15 16  1  0  0  0
 15 39  1  0  0  0
 15 40  1  0  0  0
 17 18  1  0  0  0
 18 24  2  0  0  0
 18 19  1  0  0  0
 19 20  1  0  0  0
 19 21  2  0  0  0
 20 41  1  0  0  0
 20 42  1  0  0  0
 21 22  1  0  0  0
 22 23  2  0  0  0
 22 43  1  0  0  0
 23 24  1  0  0  0
M  END
> <s_m_entry_id>
13

> <s_m_entry_name>
out_pv.2

> <s_m_Source_Path>
/home//03_prep_map

> <s_m_Source_File>
out_pv.maegz

> <i_m_Source_File_Index>
2

> <s_m_source_file>
/tmp/tmpyr555pyi/0icjb2kpi.smi

> <i_m_source_file_index>
5

> <i_lp_mmshare_version>
52144

> <i_f3d_flags>
0

> <s_epik_input>
W05IMl1jMW5bY0hdbmMoYzEyKW4oW0NIMl1bQ0gyXVtDSDJdW0NIM10pYyhuMilbQ0gyXWMoW2NIXVtjSF0zKVtjSF1jKGMzNClPW0NIMl1PNA==

> <s_epik_cmdline>
J2VwaWtfcHl0aG9uJywgJy1waHQnLCAnMS4wJywgJy1waCcsICc3LjAnLCAnLXRuJywgJzgnLCAnLW1hJywgJzIwMCcsICctaW1hZScsICc8aW5maWxlLm1hZT4nLCAnLW9tYWUnLCAnPG91dGZpbGUubWFlPic=

> <r_lp_tautomer_probability>
1

> <r_epik_Ionization_Penalty>
0.00146126

> <r_epik_Ionization_Penalty_Charging>
0

> <r_epik_Ionization_Penalty_Neutral>
0.00146126

> <r_epik_State_Penalty>
0

> <r_epik_Charging_Adjusted_Penalty>
0

> <i_epik_Tot_Q>
0

> <i_epik_Tot_abs_Q>
0

> <s_epik_Chemistry_Notes>
This compound contains an acetal/aminal-like group ( X-CH(R)-Y where X, Y are N, S, or O) that may be acid/base labile, releasing an aldehyde.

> <s_lp_Force_Field>
OPLS_2005

> <r_lp_Energy>
24.5474

> <b_lp_Chiralities_Consistent>
1

> <s_lp_Variant>
4:4-1

> <s_i_glide_gridfile>
glide-grid_1

> <i_i_glide_lignum>
1

> <i_i_glide_rotatable_bonds>
5

> <r_i_docking_score>
-7.17423810848027

> <r_i_glide_ligand_efficiency>
-0.298926587853345

> <r_i_glide_ligand_efficiency_sa>
-0.862253484856463

> <r_i_glide_ligand_efficiency_ln>
-1.71712438369489

> <r_i_glide_gscore>
-7.17423810848027

> <r_i_glide_lipo>
-2.57485606651596

> <r_i_glide_hbond>
-0.32

> <r_i_glide_metal>
0

> <r_i_glide_rewards>
-2.86308393700942

> <r_i_glide_evdw>
-34.2155990600586

> <r_i_glide_ecoul>
-2.75744080543518

> <r_i_glide_erotb>
0.708097968863318

> <r_i_glide_esite>
0

> <r_i_glide_emodel>
-52.0618796901193

> <r_i_glide_energy>
-36.9730398654938

> <r_i_glide_einternal>
2.03111028671265

> <r_i_glide_intrahb_reward>
0

> <r_i_glide_emodel_strain>
0.0978431701660156

> <r_i_glide_gscore_strain>
0

> <i_i_glide_confnum>
4

> <i_i_glide_posenum>
73

> <r_i_glide_eff_state_penalty>
0

> <s_m_job_name>
glide-dock_SP_2

> <s_m_subgroup_title>
glide-dock_SP_2_pv1

> <s_m_subgroupid>
glide-dock_SP_2_pv1

> <b_m_subgroup_collapsed>
0

$$$$
4:5
                    3D
 Schrodinger Suite 2020-4.
 43 46  0  0  1  0            999 V2000
    6.1287   15.9319   26.1408 C   0  0  0  0  0  0
    6.6303   15.5952   24.7226 C   0  0  0  0  0  0
    7.5568   14.3686   24.6452 C   0  0  0  0  0  0
    7.0085   13.0749   25.2806 C   0  0  0  0  0  0
    5.9666   12.3956   24.4756 N   0  0  0  0  0  0
    6.0522   11.1761   23.8782 C   0  0  0  0  0  0
    7.2374   10.2560   23.7980 C   0  0  0  0  0  0
    6.9057    8.7692   24.0095 C   0  0  0  0  0  0
    7.7883    7.8141   23.4834 C   0  0  0  0  0  0
    7.5008    6.4471   23.5495 C   0  0  0  0  0  0
    6.3307    6.0562   24.1861 C   0  0  0  0  0  0
    5.4853    6.9686   24.7433 C   0  0  0  0  0  0
    5.7459    8.3321   24.6877 C   0  0  0  0  0  0
    4.4460    6.3191   25.3301 O   0  0  0  0  0  0
    4.5388    4.9961   24.8748 C   0  0  0  0  0  0
    5.8440    4.8047   24.3962 O   0  0  0  0  0  0
    4.9217   10.8094   23.3315 N   0  0  0  0  0  0
    4.0421   11.7347   23.7074 C   0  0  0  0  0  0
    2.6432   11.7739   23.5837 C   0  0  0  0  0  0
    1.9069   10.6813   23.1520 N   0  0  0  0  0  0
    1.9836   12.9016   23.9506 N   0  0  0  0  0  0
    2.7127   13.8888   24.4837 C   0  0  0  0  0  0
    4.0188   13.9041   24.7807 N   0  0  0  0  0  0
    4.6549   12.7882   24.3478 C   0  0  0  0  0  0
    5.5419   16.8492   26.1376 H   0  0  0  0  0  0
    5.4805   15.1601   26.5505 H   0  0  0  0  0  0
    6.9589   16.0492   26.8363 H   0  0  0  0  0  0
    7.1644   16.4485   24.3191 H   0  0  0  0  0  0
    5.7898   15.4748   24.0439 H   0  0  0  0  0  0
    8.4871   14.6287   25.1534 H   0  0  0  0  0  0
    7.8382   14.1834   23.6070 H   0  0  0  0  0  0
    6.5585   13.2491   26.2574 H   0  0  0  0  0  0
    7.8160   12.3702   25.4520 H   0  0  0  0  0  0
    7.6920   10.3885   22.8163 H   0  0  0  0  0  0
    8.0170   10.5209   24.5039 H   0  0  0  0  0  0
    8.6706    8.1306   22.9519 H   0  0  0  0  0  0
    8.1615    5.7279   23.0917 H   0  0  0  0  0  0
    5.0596    9.0263   25.1487 H   0  0  0  0  0  0
    3.8288    4.8533   24.0566 H   0  0  0  0  0  0
    4.3014    4.2911   25.6718 H   0  0  0  0  0  0
    2.3945    9.8316   22.9055 H   0  0  0  0  0  0
    0.9021   10.7518   23.1108 H   0  0  0  0  0  0
    2.1655   14.7813   24.7492 H   0  0  0  0  0  0
  1  2  1  0  0  0
  1 25  1  0  0  0
  1 26  1  0  0  0
  1 27  1  0  0  0
  2  3  1  0  0  0
  2 28  1  0  0  0
  2 29  1  0  0  0
  3  4  1  0  0  0
  3 30  1  0  0  0
  3 31  1  0  0  0
  4  5  1  0  0  0
  4 32  1  0  0  0
  4 33  1  0  0  0
  5 24  1  0  0  0
  5  6  1  0  0  0
  6  7  1  0  0  0
  6 17  2  0  0  0
  7  8  1  0  0  0
  7 34  1  0  0  0
  7 35  1  0  0  0
  8 13  1  0  0  0
  8  9  2  0  0  0
  9 10  1  0  0  0
  9 36  1  0  0  0
 10 11  2  0  0  0
 10 37  1  0  0  0
 11 16  1  0  0  0
 11 12  1  0  0  0
 12 13  2  0  0  0
 12 14  1  0  0  0
 13 38  1  0  0  0
 14 15  1  0  0  0
 15 16  1  0  0  0
 15 39  1  0  0  0
 15 40  1  0  0  0
 17 18  1  0  0  0
 18 24  2  0  0  0
 18 19  1  0  0  0
 19 20  1  0  0  0
 19 21  2  0  0  0
 20 41  1  0  0  0
 20 42  1  0  0  0
 21 22  1  0  0  0
 22 23  2  0  0  0
 22 43  1  0  0  0
 23 24  1  0  0  0
M  END
> <s_m_entry_id>
14

> <s_m_entry_name>
out_pv.2

> <s_m_Source_Path>
/home//03_prep_map

> <s_m_Source_File>
out_pv.maegz

> <i_m_Source_File_Index>
2

> <s_m_source_file>
/tmp/tmpyr555pyi/0icjb2kpi.smi

> <i_m_source_file_index>
5

> <i_lp_mmshare_version>
52144

> <i_f3d_flags>
0

> <s_epik_input>
W05IMl1jMW5bY0hdbmMoYzEyKW4oW0NIMl1bQ0gyXVtDSDJdW0NIM10pYyhuMilbQ0gyXWMoW2NIXVtjSF0zKVtjSF1jKGMzNClPW0NIMl1PNA==

> <s_epik_cmdline>
J2VwaWtfcHl0aG9uJywgJy1waHQnLCAnMS4wJywgJy1waCcsICc3LjAnLCAnLXRuJywgJzgnLCAnLW1hJywgJzIwMCcsICctaW1hZScsICc8aW5maWxlLm1hZT4nLCAnLW9tYWUnLCAnPG91dGZpbGUubWFlPic=

> <r_lp_tautomer_probability>
1

> <r_epik_Ionization_Penalty>
0.00146126

> <r_epik_Ionization_Penalty_Charging>
0

> <r_epik_Ionization_Penalty_Neutral>
0.00146126

> <r_epik_State_Penalty>
0

> <r_epik_Charging_Adjusted_Penalty>
0

> <i_epik_Tot_Q>
0

> <i_epik_Tot_abs_Q>
0

> <s_epik_Chemistry_Notes>
This compound contains an acetal/aminal-like group ( X-CH(R)-Y where X, Y are N, S, or O) that may be acid/base labile, releasing an aldehyde.

> <s_lp_Force_Field>
OPLS_2005

> <r_lp_Energy>
24.5474

> <b_lp_Chiralities_Consistent>
1

> <s_lp_Variant>
4:5-1

> <s_i_glide_gridfile>
glide-grid_1

> <i_i_glide_lignum>
1

> <i_i_glide_rotatable_bonds>
5

> <r_i_docking_score>
-7.1164986073177

> <r_i_glide_ligand_efficiency>
-0.296520775304904

> <r_i_glide_ligand_efficiency_sa>
-0.855313920635357

> <r_i_glide_ligand_efficiency_ln>
-1.70330467157362

> <r_i_glide_gscore>
-7.1164986073177

> <r_i_glide_lipo>
-2.67396732985773

> <r_i_glide_hbond>
-0.313194582622341

> <r_i_glide_metal>
0

> <r_i_glide_rewards>
-3.00173654191482

> <r_i_glide_evdw>
-31.5459518432617

> <r_i_glide_ecoul>
-1.72267019748688

> <r_i_glide_erotb>
0.708097968863318

> <r_i_glide_esite>
0

> <r_i_glide_emodel>
-46.4501354826279

> <r_i_glide_energy>
-33.2686220407486

> <r_i_glide_einternal>
5.58654117584229

> <r_i_glide_intrahb_reward>
0

> <r_i_glide_emodel_strain>
0.0978431701660156

> <r_i_glide_gscore_strain>
0

> <i_i_glide_confnum>
5

> <i_i_glide_posenum>
160

> <r_i_glide_eff_state_penalty>
0

> <s_m_job_name>
glide-dock_SP_2

> <s_m_subgroup_title>
glide-dock_SP_2_pv1

> <s_m_subgroupid>
glide-dock_SP_2_pv1

> <b_m_subgroup_collapsed>
0

$$$$
4:6
                    3D
 Schrodinger Suite 2020-4.
 43 46  0  0  1  0            999 V2000
    6.4691    7.5629   23.7596 C   0  0  0  0  0  0
    7.0370    8.7820   24.4999 C   0  0  0  0  0  0
    7.5668    9.8945   23.5818 C   0  0  0  0  0  0
    6.4744   10.6918   22.8413 C   0  0  0  0  0  0
    5.7160   11.6070   23.7252 N   0  0  0  0  0  0
    4.4648   11.4478   24.2368 C   0  0  0  0  0  0
    3.6129   10.2131   24.0821 C   0  0  0  0  0  0
    2.1891   10.3391   24.6367 C   0  0  0  0  0  0
    1.8725    9.9502   25.9471 C   0  0  0  0  0  0
    0.5540   10.0495   26.4304 C   0  0  0  0  0  0
   -0.4251   10.5510   25.5920 C   0  0  0  0  0  0
   -0.1208   10.9483   24.3304 C   0  0  0  0  0  0
    1.1779   10.8495   23.8217 C   0  0  0  0  0  0
   -1.2520   11.4053   23.7257 O   0  0  0  0  0  0
   -2.3099   11.1554   24.6172 C   0  0  0  0  0  0
   -1.7463   10.7562   25.8405 O   0  0  0  0  0  0
    4.0713   12.5059   24.9089 N   0  0  0  0  0  0
    5.1149   13.3481   24.8913 C   0  0  0  0  0  0
    5.3106   14.6178   25.4806 C   0  0  0  0  0  0
    4.3546   15.2504   26.2641 N   0  0  0  0  0  0
    6.4978   15.2488   25.2923 N   0  0  0  0  0  0
    7.4260   14.6242   24.5550 C   0  0  0  0  0  0
    7.3589   13.4279   23.9479 N   0  0  0  0  0  0
    6.1629   12.8251   24.1613 C   0  0  0  0  0  0
    6.1036    6.8190   24.4674 H   0  0  0  0  0  0
    5.6354    7.8312   23.1108 H   0  0  0  0  0  0
    7.2328    7.0822   23.1477 H   0  0  0  0  0  0
    7.8469    8.4477   25.1480 H   0  0  0  0  0  0
    6.2730    9.1958   25.1537 H   0  0  0  0  0  0
    8.2456    9.4529   22.8500 H   0  0  0  0  0  0
    8.1818   10.5830   24.1637 H   0  0  0  0  0  0
    5.7497   10.0496   22.3481 H   0  0  0  0  0  0
    6.9308   11.3245   22.0791 H   0  0  0  0  0  0
    3.5484    9.9516   23.0257 H   0  0  0  0  0  0
    4.1009    9.3710   24.5705 H   0  0  0  0  0  0
    2.6468    9.5689   26.5987 H   0  0  0  0  0  0
    0.3136    9.7436   27.4368 H   0  0  0  0  0  0
    1.4425   11.1404   22.8171 H   0  0  0  0  0  0
   -2.9441   10.3528   24.2339 H   0  0  0  0  0  0
   -2.9091   12.0566   24.7467 H   0  0  0  0  0  0
    3.5083   14.7483   26.4892 H   0  0  0  0  0  0
    4.5907   16.1344   26.6875 H   0  0  0  0  0  0
    8.3552   15.1615   24.4272 H   0  0  0  0  0  0
  1  2  1  0  0  0
  1 25  1  0  0  0
  1 26  1  0  0  0
  1 27  1  0  0  0
  2  3  1  0  0  0
  2 28  1  0  0  0
  2 29  1  0  0  0
  3  4  1  0  0  0
  3 30  1  0  0  0
  3 31  1  0  0  0
  4  5  1  0  0  0
  4 32  1  0  0  0
  4 33  1  0  0  0
  5 24  1  0  0  0
  5  6  1  0  0  0
  6  7  1  0  0  0
  6 17  2  0  0  0
  7  8  1  0  0  0
  7 34  1  0  0  0
  7 35  1  0  0  0
  8 13  1  0  0  0
  8  9  2  0  0  0
  9 10  1  0  0  0
  9 36  1  0  0  0
 10 11  2  0  0  0
 10 37  1  0  0  0
 11 16  1  0  0  0
 11 12  1  0  0  0
 12 13  2  0  0  0
 12 14  1  0  0  0
 13 38  1  0  0  0
 14 15  1  0  0  0
 15 16  1  0  0  0
 15 39  1  0  0  0
 15 40  1  0  0  0
 17 18  1  0  0  0
 18 24  2  0  0  0
 18 19  1  0  0  0
 19 20  1  0  0  0
 19 21  2  0  0  0
 20 41  1  0  0  0
 20 42  1  0  0  0
 21 22  1  0  0  0
 22 23  2  0  0  0
 22 43  1  0  0  0
 23 24  1  0  0  0
M  END
> <s_m_entry_id>
15

> <s_m_entry_name>
out_pv.2

> <s_m_Source_Path>
/home//03_prep_map

> <s_m_Source_File>
out_pv.maegz

> <i_m_Source_File_Index>
2

> <s_m_source_file>
/tmp/tmpyr555pyi/0icjb2kpi.smi

> <i_m_source_file_index>
5

> <i_lp_mmshare_version>
52144

> <i_f3d_flags>
0

> <s_epik_input>
W05IMl1jMW5bY0hdbmMoYzEyKW4oW0NIMl1bQ0gyXVtDSDJdW0NIM10pYyhuMilbQ0gyXWMoW2NIXVtjSF0zKVtjSF1jKGMzNClPW0NIMl1PNA==

> <s_epik_cmdline>
J2VwaWtfcHl0aG9uJywgJy1waHQnLCAnMS4wJywgJy1waCcsICc3LjAnLCAnLXRuJywgJzgnLCAnLW1hJywgJzIwMCcsICctaW1hZScsICc8aW5maWxlLm1hZT4nLCAnLW9tYWUnLCAnPG91dGZpbGUubWFlPic=

> <r_lp_tautomer_probability>
1

> <r_epik_Ionization_Penalty>
0.00146126

> <r_epik_Ionization_Penalty_Charging>
0

> <r_epik_Ionization_Penalty_Neutral>
0.00146126

> <r_epik_State_Penalty>
0

> <r_epik_Charging_Adjusted_Penalty>
0

> <i_epik_Tot_Q>
0

> <i_epik_Tot_abs_Q>
0

> <s_epik_Chemistry_Notes>
This compound contains an acetal/aminal-like group ( X-CH(R)-Y where X, Y are N, S, or O) that may be acid/base labile, releasing an aldehyde.

> <s_lp_Force_Field>
OPLS_2005

> <r_lp_Energy>
24.5474

> <b_lp_Chiralities_Consistent>
1

> <s_lp_Variant>
4:6-1

> <s_i_glide_gridfile>
glide-grid_1

> <i_i_glide_lignum>
1

> <i_i_glide_rotatable_bonds>
5

> <r_i_docking_score>
-7.05130530428049

> <r_i_glide_ligand_efficiency>
-0.293804387678354

> <r_i_glide_ligand_efficiency_sa>
-0.847478502869296

> <r_i_glide_ligand_efficiency_ln>
-1.68770092263107

> <r_i_glide_gscore>
-7.05130530428049

> <r_i_glide_lipo>
-2.42580467843938

> <r_i_glide_hbond>
-0.32

> <r_i_glide_metal>
0

> <r_i_glide_rewards>
-2.88469446066932

> <r_i_glide_evdw>
-37.4690170288086

> <r_i_glide_ecoul>
-1.70302188396454

> <r_i_glide_erotb>
0.708097968863318

> <r_i_glide_esite>
0

> <r_i_glide_emodel>
-54.3426943440534

> <r_i_glide_energy>
-39.1720389127731

> <r_i_glide_einternal>
1.31557142734528

> <r_i_glide_intrahb_reward>
0

> <r_i_glide_emodel_strain>
0.0978431701660156

> <r_i_glide_gscore_strain>
0

> <i_i_glide_confnum>
19

> <i_i_glide_posenum>
355

> <r_i_glide_eff_state_penalty>
0

> <s_m_job_name>
glide-dock_SP_2

> <s_m_subgroup_title>
glide-dock_SP_2_pv1

> <s_m_subgroupid>
glide-dock_SP_2_pv1

> <b_m_subgroup_collapsed>
0

$$$$
4:7
                    3D
 Schrodinger Suite 2020-4.
 43 46  0  0  1  0            999 V2000
    8.4225   15.4743   24.9124 C   0  0  0  0  0  0
    7.1232   15.2933   25.7131 C   0  0  0  0  0  0
    6.4914   13.9017   25.5409 C   0  0  0  0  0  0
    6.0148   13.6258   24.1019 C   0  0  0  0  0  0
    5.5925   12.2228   23.9498 N   0  0  0  0  0  0
    4.3848   11.6801   24.2258 C   0  0  0  0  0  0
    3.2122   12.5312   24.6149 C   0  0  0  0  0  0
    1.8412   11.8626   24.7450 C   0  0  0  0  0  0
    1.6574   10.5852   25.3195 C   0  0  0  0  0  0
    0.3767   10.0491   25.4827 C   0  0  0  0  0  0
   -0.6985   10.7814   25.0052 C   0  0  0  0  0  0
   -0.5306   12.0146   24.4567 C   0  0  0  0  0  0
    0.7195   12.6051   24.3480 C   0  0  0  0  0  0
   -1.7259   12.5028   24.0557 O   0  0  0  0  0  0
   -2.6752   11.5397   24.4069 C   0  0  0  0  0  0
   -2.0120   10.4491   24.9821 O   0  0  0  0  0  0
    4.3796   10.3737   24.0891 N   0  0  0  0  0  0
    5.6171   10.0669   23.6728 C   0  0  0  0  0  0
    6.2401    8.8329   23.3786 C   0  0  0  0  0  0
    5.6211    7.5995   23.5430 N   0  0  0  0  0  0
    7.5022    8.8497   22.8793 N   0  0  0  0  0  0
    8.0889   10.0386   22.7075 C   0  0  0  0  0  0
    7.6396   11.2596   23.0143 N   0  0  0  0  0  0
    6.3806   11.2055   23.5069 C   0  0  0  0  0  0
    8.9105   16.4173   25.1482 H   0  0  0  0  0  0
    9.1370   14.6865   25.1470 H   0  0  0  0  0  0
    8.2469   15.4668   23.8370 H   0  0  0  0  0  0
    6.4051   16.0631   25.4283 H   0  0  0  0  0  0
    7.3368   15.4609   26.7701 H   0  0  0  0  0  0
    5.6505   13.8067   26.2294 H   0  0  0  0  0  0
    7.2167   13.1438   25.8440 H   0  0  0  0  0  0
    6.8197   13.7729   23.3831 H   0  0  0  0  0  0
    5.1802   14.2615   23.8075 H   0  0  0  0  0  0
    3.4389   13.0386   25.5483 H   0  0  0  0  0  0
    3.1233   13.3201   23.8669 H   0  0  0  0  0  0
    2.4959   10.0203   25.6985 H   0  0  0  0  0  0
    0.2492    9.0832   25.9475 H   0  0  0  0  0  0
    0.8245   13.6085   23.9599 H   0  0  0  0  0  0
   -3.2121   11.2493   23.5050 H   0  0  0  0  0  0
   -3.3527   11.9552   25.1479 H   0  0  0  0  0  0
    4.6622    7.5685   23.8587 H   0  0  0  0  0  0
    6.1140    6.7740   23.2381 H   0  0  0  0  0  0
    9.0472   10.0175   22.2212 H   0  0  0  0  0  0
  1  2  1  0  0  0
  1 25  1  0  0  0
  1 26  1  0  0  0
  1 27  1  0  0  0
  2  3  1  0  0  0
  2 28  1  0  0  0
  2 29  1  0  0  0
  3  4  1  0  0  0
  3 30  1  0  0  0
  3 31  1  0  0  0
  4  5  1  0  0  0
  4 32  1  0  0  0
  4 33  1  0  0  0
  5 24  1  0  0  0
  5  6  1  0  0  0
  6  7  1  0  0  0
  6 17  2  0  0  0
  7  8  1  0  0  0
  7 34  1  0  0  0
  7 35  1  0  0  0
  8 13  1  0  0  0
  8  9  2  0  0  0
  9 10  1  0  0  0
  9 36  1  0  0  0
 10 11  2  0  0  0
 10 37  1  0  0  0
 11 16  1  0  0  0
 11 12  1  0  0  0
 12 13  2  0  0  0
 12 14  1  0  0  0
 13 38  1  0  0  0
 14 15  1  0  0  0
 15 16  1  0  0  0
 15 39  1  0  0  0
 15 40  1  0  0  0
 17 18  1  0  0  0
 18 24  2  0  0  0
 18 19  1  0  0  0
 19 20  1  0  0  0
 19 21  2  0  0  0
 20 41  1  0  0  0
 20 42  1  0  0  0
 21 22  1  0  0  0
 22 23  2  0  0  0
 22 43  1  0  0  0
 23 24  1  0  0  0
M  END
> <s_m_entry_id>
16

> <s_m_entry_name>
out_pv.2

> <s_m_Source_Path>
/home//03_prep_map

> <s_m_Source_File>
out_pv.maegz

> <i_m_Source_File_Index>
2

> <s_m_source_file>
/tmp/tmpyr555pyi/0icjb2kpi.smi

> <i_m_source_file_index>
5

> <i_lp_mmshare_version>
52144

> <i_f3d_flags>
0

> <s_epik_input>
W05IMl1jMW5bY0hdbmMoYzEyKW4oW0NIMl1bQ0gyXVtDSDJdW0NIM10pYyhuMilbQ0gyXWMoW2NIXVtjSF0zKVtjSF1jKGMzNClPW0NIMl1PNA==

> <s_epik_cmdline>
J2VwaWtfcHl0aG9uJywgJy1waHQnLCAnMS4wJywgJy1waCcsICc3LjAnLCAnLXRuJywgJzgnLCAnLW1hJywgJzIwMCcsICctaW1hZScsICc8aW5maWxlLm1hZT4nLCAnLW9tYWUnLCAnPG91dGZpbGUubWFlPic=

> <r_lp_tautomer_probability>
1

> <r_epik_Ionization_Penalty>
0.00146126

> <r_epik_Ionization_Penalty_Charging>
0

> <r_epik_Ionization_Penalty_Neutral>
0.00146126

> <r_epik_State_Penalty>
0

> <r_epik_Charging_Adjusted_Penalty>
0

> <i_epik_Tot_Q>
0

> <i_epik_Tot_abs_Q>
0

> <s_epik_Chemistry_Notes>
This compound contains an acetal/aminal-like group ( X-CH(R)-Y where X, Y are N, S, or O) that may be acid/base labile, releasing an aldehyde.

> <s_lp_Force_Field>
OPLS_2005

> <r_lp_Energy>
24.5474

> <b_lp_Chiralities_Consistent>
1

> <s_lp_Variant>
4:7-1

> <s_i_glide_gridfile>
glide-grid_1

> <i_i_glide_lignum>
1

> <i_i_glide_rotatable_bonds>
5

> <r_i_docking_score>
-6.84181787888614

> <r_i_glide_ligand_efficiency>
-0.285075744953589

> <r_i_glide_ligand_efficiency_sa>
-0.822300740457651

> <r_i_glide_ligand_efficiency_ln>
-1.63756096898262

> <r_i_glide_gscore>
-6.84181787888614

> <r_i_glide_lipo>
-2.25268773024674

> <r_i_glide_hbond>
-0.0669678223354546

> <r_i_glide_metal>
0

> <r_i_glide_rewards>
-3.20743009572459

> <r_i_glide_evdw>
-38.0276031494141

> <r_i_glide_ecoul>
-0.292049556970596

> <r_i_glide_erotb>
0.708097968863318

> <r_i_glide_esite>
-0.0776426084263809

> <r_i_glide_emodel>
-51.6829289796233

> <r_i_glide_energy>
-38.3196527063847

> <r_i_glide_einternal>
3.98983454704285

> <r_i_glide_intrahb_reward>
0

> <r_i_glide_emodel_strain>
0.0978431701660156

> <r_i_glide_gscore_strain>
0

> <i_i_glide_confnum>
6

> <i_i_glide_posenum>
284

> <r_i_glide_eff_state_penalty>
0

> <s_m_job_name>
glide-dock_SP_2

> <s_m_subgroup_title>
glide-dock_SP_2_pv1

> <s_m_subgroupid>
glide-dock_SP_2_pv1

> <b_m_subgroup_collapsed>
0

$$$$
4:8
                    3D
 Schrodinger Suite 2020-4.
 43 46  0  0  1  0            999 V2000
    6.9400   14.5940   26.6621 C   0  0  0  0  0  0
    6.1302   13.9003   25.5561 C   0  0  0  0  0  0
    6.9286   12.8003   24.8302 C   0  0  0  0  0  0
    6.2374   12.1234   23.6246 C   0  0  0  0  0  0
    4.9657   11.4361   23.9479 N   0  0  0  0  0  0
    4.7524   10.1046   24.1118 C   0  0  0  0  0  0
    5.8642    9.0873   24.0299 C   0  0  0  0  0  0
    5.5391    7.5999   24.2438 C   0  0  0  0  0  0
    4.5523    7.1458   25.1479 C   0  0  0  0  0  0
    4.3095    5.7781   25.3374 C   0  0  0  0  0  0
    5.0711    4.8816   24.5982 C   0  0  0  0  0  0
    6.0366    5.3048   23.7321 C   0  0  0  0  0  0
    6.3111    6.6538   23.5479 C   0  0  0  0  0  0
    6.6472    4.2280   23.1713 O   0  0  0  0  0  0
    5.8778    3.1205   23.5583 C   0  0  0  0  0  0
    5.0518    3.5231   24.6188 O   0  0  0  0  0  0
    3.4820    9.8250   24.3019 N   0  0  0  0  0  0
    2.8523   11.0104   24.2839 C   0  0  0  0  0  0
    1.4915   11.3653   24.4429 C   0  0  0  0  0  0
    0.4750   10.4495   24.6864 N   0  0  0  0  0  0
    1.1455   12.6768   24.3479 N   0  0  0  0  0  0
    2.1214   13.5660   24.1190 C   0  0  0  0  0  0
    3.4304   13.3527   23.9482 N   0  0  0  0  0  0
    3.7437   12.0390   24.0516 C   0  0  0  0  0  0
    6.3497   15.3717   27.1479 H   0  0  0  0  0  0
    7.2502   13.8860   27.4316 H   0  0  0  0  0  0
    7.8370   15.0683   26.2614 H   0  0  0  0  0  0
    5.7980   14.6486   24.8346 H   0  0  0  0  0  0
    5.2285   13.4777   25.9999 H   0  0  0  0  0  0
    7.2456   12.0495   25.5479 H   0  0  0  0  0  0
    7.8472   13.2505   24.4563 H   0  0  0  0  0  0
    6.8935   11.3928   23.1532 H   0  0  0  0  0  0
    5.9830   12.8495   22.8566 H   0  0  0  0  0  0
    6.3213    9.1863   23.0446 H   0  0  0  0  0  0
    6.6380    9.3542   24.7479 H   0  0  0  0  0  0
    3.9717    7.8441   25.7312 H   0  0  0  0  0  0
    3.5581    5.4451   26.0376 H   0  0  0  0  0  0
    7.0947    6.9656   22.8741 H   0  0  0  0  0  0
    6.5201    2.2940   23.8638 H   0  0  0  0  0  0
    5.2531    2.8069   22.7194 H   0  0  0  0  0  0
    0.7001    9.4644   24.7479 H   0  0  0  0  0  0
   -0.4665   10.7914   24.7981 H   0  0  0  0  0  0
    1.8069   14.5977   24.0520 H   0  0  0  0  0  0
  1  2  1  0  0  0
  1 25  1  0  0  0
  1 26  1  0  0  0
  1 27  1  0  0  0
  2  3  1  0  0  0
  2 28  1  0  0  0
  2 29  1  0  0  0
  3  4  1  0  0  0
  3 30  1  0  0  0
  3 31  1  0  0  0
  4  5  1  0  0  0
  4 32  1  0  0  0
  4 33  1  0  0  0
  5 24  1  0  0  0
  5  6  1  0  0  0
  6  7  1  0  0  0
  6 17  2  0  0  0
  7  8  1  0  0  0
  7 34  1  0  0  0
  7 35  1  0  0  0
  8 13  1  0  0  0
  8  9  2  0  0  0
  9 10  1  0  0  0
  9 36  1  0  0  0
 10 11  2  0  0  0
 10 37  1  0  0  0
 11 16  1  0  0  0
 11 12  1  0  0  0
 12 13  2  0  0  0
 12 14  1  0  0  0
 13 38  1  0  0  0
 14 15  1  0  0  0
 15 16  1  0  0  0
 15 39  1  0  0  0
 15 40  1  0  0  0
 17 18  1  0  0  0
 18 24  2  0  0  0
 18 19  1  0  0  0
 19 20  1  0  0  0
 19 21  2  0  0  0
 20 41  1  0  0  0
 20 42  1  0  0  0
 21 22  1  0  0  0
 22 23  2  0  0  0
 22 43  1  0  0  0
 23 24  1  0  0  0
M  END
> <s_m_entry_id>
17

> <s_m_entry_name>
out_pv.2

> <s_m_Source_Path>
/home//03_prep_map

> <s_m_Source_File>
out_pv.maegz

> <i_m_Source_File_Index>
2

> <s_m_source_file>
/tmp/tmpyr555pyi/0icjb2kpi.smi

> <i_m_source_file_index>
5

> <i_lp_mmshare_version>
52144

> <i_f3d_flags>
0

> <s_epik_input>
W05IMl1jMW5bY0hdbmMoYzEyKW4oW0NIMl1bQ0gyXVtDSDJdW0NIM10pYyhuMilbQ0gyXWMoW2NIXVtjSF0zKVtjSF1jKGMzNClPW0NIMl1PNA==

> <s_epik_cmdline>
J2VwaWtfcHl0aG9uJywgJy1waHQnLCAnMS4wJywgJy1waCcsICc3LjAnLCAnLXRuJywgJzgnLCAnLW1hJywgJzIwMCcsICctaW1hZScsICc8aW5maWxlLm1hZT4nLCAnLW9tYWUnLCAnPG91dGZpbGUubWFlPic=

> <r_lp_tautomer_probability>
1

> <r_epik_Ionization_Penalty>
0.00146126

> <r_epik_Ionization_Penalty_Charging>
0

> <r_epik_Ionization_Penalty_Neutral>
0.00146126

> <r_epik_State_Penalty>
0

> <r_epik_Charging_Adjusted_Penalty>
0

> <i_epik_Tot_Q>
0

> <i_epik_Tot_abs_Q>
0

> <s_epik_Chemistry_Notes>
This compound contains an acetal/aminal-like group ( X-CH(R)-Y where X, Y are N, S, or O) that may be acid/base labile, releasing an aldehyde.

> <s_lp_Force_Field>
OPLS_2005

> <r_lp_Energy>
24.5474

> <b_lp_Chiralities_Consistent>
1

> <s_lp_Variant>
4:8-1

> <s_i_glide_gridfile>
glide-grid_1

> <i_i_glide_lignum>
1

> <i_i_glide_rotatable_bonds>
5

> <r_i_docking_score>
-6.72004465297665

> <r_i_glide_ligand_efficiency>
-0.280001860540694

> <r_i_glide_ligand_efficiency_sa>
-0.80766512524458

> <r_i_glide_ligand_efficiency_ln>
-1.60841504821325

> <r_i_glide_gscore>
-6.72004465297665

> <r_i_glide_lipo>
-2.13510022300879

> <r_i_glide_hbond>
-0.390703709264405

> <r_i_glide_metal>
0

> <r_i_glide_rewards>
-2.74985436797254

> <r_i_glide_evdw>
-34.0348663330078

> <r_i_glide_ecoul>
-3.00494003295898

> <r_i_glide_erotb>
0.708097968863318

> <r_i_glide_esite>
0

> <r_i_glide_emodel>
-51.6224031539249

> <r_i_glide_energy>
-37.0398063659668

> <r_i_glide_einternal>
1.00449180603027

> <r_i_glide_intrahb_reward>
0

> <r_i_glide_emodel_strain>
0.0978431701660156

> <r_i_glide_gscore_strain>
0

> <i_i_glide_confnum>
8

> <i_i_glide_posenum>
351

> <r_i_glide_eff_state_penalty>
0

> <s_m_job_name>
glide-dock_SP_2

> <s_m_subgroup_title>
glide-dock_SP_2_pv1

> <s_m_subgroupid>
glide-dock_SP_2_pv1

> <b_m_subgroup_collapsed>
0

$$$$
4:9
                    3D
 Schrodinger Suite 2020-4.
 43 46  0  0  1  0            999 V2000
    4.8561   14.6118   26.1588 C   0  0  0  0  0  0
    4.5179   13.3748   25.3149 C   0  0  0  0  0  0
    3.3726   13.6224   24.3221 C   0  0  0  0  0  0
    2.9260   12.3699   23.5417 C   0  0  0  0  0  0
    2.1952   11.3909   24.3803 N   0  0  0  0  0  0
    2.6895   10.2801   24.9850 C   0  0  0  0  0  0
    4.1279    9.8269   24.9606 C   0  0  0  0  0  0
    4.3943    8.3627   24.5902 C   0  0  0  0  0  0
    5.4740    8.0705   23.7303 C   0  0  0  0  0  0
    5.8058    6.7496   23.4007 C   0  0  0  0  0  0
    5.0243    5.7367   23.9384 C   0  0  0  0  0  0
    3.9862    6.0031   24.7840 C   0  0  0  0  0  0
    3.6517    7.3020   25.1479 C   0  0  0  0  0  0
    3.4316    4.8316   25.1932 O   0  0  0  0  0  0
    3.9814    3.8555   24.3503 C   0  0  0  0  0  0
    5.1482    4.3919   23.7874 O   0  0  0  0  0  0
    1.7824    9.6807   25.7168 N   0  0  0  0  0  0
    0.6547   10.3886   25.5663 C   0  0  0  0  0  0
   -0.6374   10.2570   26.1359 C   0  0  0  0  0  0
   -0.9528    9.3553   27.1479 N   0  0  0  0  0  0
   -1.6210   11.0897   25.7127 N   0  0  0  0  0  0
   -1.2867   12.0495   24.8419 C   0  0  0  0  0  0
   -0.0765   12.3573   24.3479 N   0  0  0  0  0  0
    0.8648   11.4543   24.7169 C   0  0  0  0  0  0
    5.6688   14.3989   26.8541 H   0  0  0  0  0  0
    5.1668   15.4485   25.5318 H   0  0  0  0  0  0
    3.9967   14.9348   26.7479 H   0  0  0  0  0  0
    4.2472   12.5563   25.9760 H   0  0  0  0  0  0
    5.4084   13.0481   24.7759 H   0  0  0  0  0  0
    3.7019   14.3771   23.6067 H   0  0  0  0  0  0
    2.5141   14.0600   24.8327 H   0  0  0  0  0  0
    3.7549   11.8544   23.0615 H   0  0  0  0  0  0
    2.2472   12.6511   22.7479 H   0  0  0  0  0  0
    4.7236   10.4660   24.3141 H   0  0  0  0  0  0
    4.5464    9.9906   25.9479 H   0  0  0  0  0  0
    6.0701    8.8712   23.3173 H   0  0  0  0  0  0
    6.6384    6.5343   22.7479 H   0  0  0  0  0  0
    2.8520    7.4716   25.8519 H   0  0  0  0  0  0
    3.2696    3.6296   23.5520 H   0  0  0  0  0  0
    4.1959    2.9388   24.8998 H   0  0  0  0  0  0
   -0.1769    8.8495   27.5543 H   0  0  0  0  0  0
   -1.8337    9.4298   27.6286 H   0  0  0  0  0  0
   -2.0944   12.6998   24.5367 H   0  0  0  0  0  0
  1  2  1  0  0  0
  1 25  1  0  0  0
  1 26  1  0  0  0
  1 27  1  0  0  0
  2  3  1  0  0  0
  2 28  1  0  0  0
  2 29  1  0  0  0
  3  4  1  0  0  0
  3 30  1  0  0  0
  3 31  1  0  0  0
  4  5  1  0  0  0
  4 32  1  0  0  0
  4 33  1  0  0  0
  5 24  1  0  0  0
  5  6  1  0  0  0
  6  7  1  0  0  0
  6 17  2  0  0  0
  7  8  1  0  0  0
  7 34  1  0  0  0
  7 35  1  0  0  0
  8 13  1  0  0  0
  8  9  2  0  0  0
  9 10  1  0  0  0
  9 36  1  0  0  0
 10 11  2  0  0  0
 10 37  1  0  0  0
 11 16  1  0  0  0
 11 12  1  0  0  0
 12 13  2  0  0  0
 12 14  1  0  0  0
 13 38  1  0  0  0
 14 15  1  0  0  0
 15 16  1  0  0  0
 15 39  1  0  0  0
 15 40  1  0  0  0
 17 18  1  0  0  0
 18 24  2  0  0  0
 18 19  1  0  0  0
 19 20  1  0  0  0
 19 21  2  0  0  0
 20 41  1  0  0  0
 20 42  1  0  0  0
 21 22  1  0  0  0
 22 23  2  0  0  0
 22 43  1  0  0  0
 23 24  1  0  0  0
M  END
> <s_m_entry_id>
18

> <s_m_entry_name>
out_pv.2

> <s_m_Source_Path>
/home//03_prep_map

> <s_m_Source_File>
out_pv.maegz

> <i_m_Source_File_Index>
2

> <s_m_source_file>
/tmp/tmpyr555pyi/0icjb2kpi.smi

> <i_m_source_file_index>
5

> <i_lp_mmshare_version>
52144

> <i_f3d_flags>
0

> <s_epik_input>
W05IMl1jMW5bY0hdbmMoYzEyKW4oW0NIMl1bQ0gyXVtDSDJdW0NIM10pYyhuMilbQ0gyXWMoW2NIXVtjSF0zKVtjSF1jKGMzNClPW0NIMl1PNA==

> <s_epik_cmdline>
J2VwaWtfcHl0aG9uJywgJy1waHQnLCAnMS4wJywgJy1waCcsICc3LjAnLCAnLXRuJywgJzgnLCAnLW1hJywgJzIwMCcsICctaW1hZScsICc8aW5maWxlLm1hZT4nLCAnLW9tYWUnLCAnPG91dGZpbGUubWFlPic=

> <r_lp_tautomer_probability>
1

> <r_epik_Ionization_Penalty>
0.00146126

> <r_epik_Ionization_Penalty_Charging>
0

> <r_epik_Ionization_Penalty_Neutral>
0.00146126

> <r_epik_State_Penalty>
0

> <r_epik_Charging_Adjusted_Penalty>
0

> <i_epik_Tot_Q>
0

> <i_epik_Tot_abs_Q>
0

> <s_epik_Chemistry_Notes>
This compound contains an acetal/aminal-like group ( X-CH(R)-Y where X, Y are N, S, or O) that may be acid/base labile, releasing an aldehyde.

> <s_lp_Force_Field>
OPLS_2005

> <r_lp_Energy>
24.5474

> <b_lp_Chiralities_Consistent>
1

> <s_lp_Variant>
4:9-1

> <s_i_glide_gridfile>
glide-grid_1

> <i_i_glide_lignum>
1

> <i_i_glide_rotatable_bonds>
5

> <r_i_docking_score>
-6.65342512230512

> <r_i_glide_ligand_efficiency>
-0.277226046762714

> <r_i_glide_ligand_efficiency_sa>
-0.799658292795971

> <r_i_glide_ligand_efficiency_ln>
-1.59246993755249

> <r_i_glide_gscore>
-6.65342512230512

> <r_i_glide_lipo>
-2.06044701880273

> <r_i_glide_hbond>
-0.768020535703774

> <r_i_glide_metal>
0

> <r_i_glide_rewards>
-2.19474975203789

> <r_i_glide_evdw>
-34.0106391906738

> <r_i_glide_ecoul>
-4.15542984008789

> <r_i_glide_erotb>
0.708097968863318

> <r_i_glide_esite>
-0.014459349077179

> <r_i_glide_emodel>
-51.8857856521369

> <r_i_glide_energy>
-38.1660690307617

> <r_i_glide_einternal>
2.43116331100464

> <r_i_glide_intrahb_reward>
0

> <r_i_glide_emodel_strain>
0.0978431701660156

> <r_i_glide_gscore_strain>
0

> <i_i_glide_confnum>
21

> <i_i_glide_posenum>
262

> <r_i_glide_eff_state_penalty>
0

> <s_m_job_name>
glide-dock_SP_2

> <s_m_subgroup_title>
glide-dock_SP_2_pv1

> <s_m_subgroupid>
glide-dock_SP_2_pv1

> <b_m_subgroup_collapsed>
0

$$$$
4:10
                    3D
 Schrodinger Suite 2020-4.
 43 46  0  0  1  0            999 V2000
    7.7339   14.2284   27.4387 C   0  0  0  0  0  0
    7.3356   14.3231   25.9655 C   0  0  0  0  0  0
    5.8172   14.5043   25.7925 C   0  0  0  0  0  0
    5.3320   14.2589   24.3483 C   0  0  0  0  0  0
    4.3908   13.1228   24.2868 N   0  0  0  0  0  0
    4.6886   11.8014   24.2259 C   0  0  0  0  0  0
    6.1064   11.2925   24.2035 C   0  0  0  0  0  0
    6.3541    9.7930   24.0010 C   0  0  0  0  0  0
    7.5209    9.4016   23.3142 C   0  0  0  0  0  0
    7.8471    8.0502   23.1500 C   0  0  0  0  0  0
    6.9669    7.1070   23.6650 C   0  0  0  0  0  0
    5.8449    7.4711   24.3477 C   0  0  0  0  0  0
    5.5177    8.8040   24.5570 C   0  0  0  0  0  0
    5.2039    6.3576   24.7880 O   0  0  0  0  0  0
    5.8224    5.2880   24.1257 C   0  0  0  0  0  0
    7.0472    5.7516   23.6231 O   0  0  0  0  0  0
    3.6124   11.0505   24.2044 N   0  0  0  0  0  0
    2.5860   11.9079   24.2850 C   0  0  0  0  0  0
    1.1895   11.7015   24.3479 C   0  0  0  0  0  0
    0.5901   10.4494   24.3788 N   0  0  0  0  0  0
    0.3753   12.7893   24.3479 N   0  0  0  0  0  0
    0.9463   14.0011   24.3222 C   0  0  0  0  0  0
    2.2473   14.3229   24.3278 N   0  0  0  0  0  0
    3.0296   13.2162   24.3011 C   0  0  0  0  0  0
    8.8025   14.0495   27.5475 H   0  0  0  0  0  0
    7.4828   15.1585   27.9479 H   0  0  0  0  0  0
    7.2152   13.4123   27.9436 H   0  0  0  0  0  0
    7.6827   13.4282   25.4525 H   0  0  0  0  0  0
    7.8618   15.1561   25.4957 H   0  0  0  0  0  0
    5.5407   15.5143   26.0999 H   0  0  0  0  0  0
    5.2917   13.8464   26.4889 H   0  0  0  0  0  0
    6.1397   14.0395   23.6503 H   0  0  0  0  0  0
    4.7930   15.1222   23.9543 H   0  0  0  0  0  0
    6.6469   11.8319   23.4254 H   0  0  0  0  0  0
    6.5772   11.5581   25.1476 H   0  0  0  0  0  0
    8.1895   10.1489   22.9123 H   0  0  0  0  0  0
    8.7382    7.7539   22.6179 H   0  0  0  0  0  0
    4.6530    9.0517   25.1519 H   0  0  0  0  0  0
    5.1883    4.9684   23.2957 H   0  0  0  0  0  0
    5.9740    4.4504   24.8071 H   0  0  0  0  0  0
    1.1650    9.6181   24.4141 H   0  0  0  0  0  0
   -0.4146   10.4003   24.4436 H   0  0  0  0  0  0
    0.2629   14.8377   24.3480 H   0  0  0  0  0  0
  1  2  1  0  0  0
  1 25  1  0  0  0
  1 26  1  0  0  0
  1 27  1  0  0  0
  2  3  1  0  0  0
  2 28  1  0  0  0
  2 29  1  0  0  0
  3  4  1  0  0  0
  3 30  1  0  0  0
  3 31  1  0  0  0
  4  5  1  0  0  0
  4 32  1  0  0  0
  4 33  1  0  0  0
  5 24  1  0  0  0
  5  6  1  0  0  0
  6  7  1  0  0  0
  6 17  2  0  0  0
  7  8  1  0  0  0
  7 34  1  0  0  0
  7 35  1  0  0  0
  8 13  1  0  0  0
  8  9  2  0  0  0
  9 10  1  0  0  0
  9 36  1  0  0  0
 10 11  2  0  0  0
 10 37  1  0  0  0
 11 16  1  0  0  0
 11 12  1  0  0  0
 12 13  2  0  0  0
 12 14  1  0  0  0
 13 38  1  0  0  0
 14 15  1  0  0  0
 15 16  1  0  0  0
 15 39  1  0  0  0
 15 40  1  0  0  0
 17 18  1  0  0  0
 18 24  2  0  0  0
 18 19  1  0  0  0
 19 20  1  0  0  0
 19 21  2  0  0  0
 20 41  1  0  0  0
 20 42  1  0  0  0
 21 22  1  0  0  0
 22 23  2  0  0  0
 22 43  1  0  0  0
 23 24  1  0  0  0
M  END
> <s_m_entry_id>
19

> <s_m_entry_name>
out_pv.2

> <s_m_Source_Path>
/home//03_prep_map

> <s_m_Source_File>
out_pv.maegz

> <i_m_Source_File_Index>
2

> <s_m_source_file>
/tmp/tmpyr555pyi/0icjb2kpi.smi

> <i_m_source_file_index>
5

> <i_lp_mmshare_version>
52144

> <i_f3d_flags>
0

> <s_epik_input>
W05IMl1jMW5bY0hdbmMoYzEyKW4oW0NIMl1bQ0gyXVtDSDJdW0NIM10pYyhuMilbQ0gyXWMoW2NIXVtjSF0zKVtjSF1jKGMzNClPW0NIMl1PNA==

> <s_epik_cmdline>
J2VwaWtfcHl0aG9uJywgJy1waHQnLCAnMS4wJywgJy1waCcsICc3LjAnLCAnLXRuJywgJzgnLCAnLW1hJywgJzIwMCcsICctaW1hZScsICc8aW5maWxlLm1hZT4nLCAnLW9tYWUnLCAnPG91dGZpbGUubWFlPic=

> <r_lp_tautomer_probability>
1

> <r_epik_Ionization_Penalty>
0.00146126

> <r_epik_Ionization_Penalty_Charging>
0

> <r_epik_Ionization_Penalty_Neutral>
0.00146126

> <r_epik_State_Penalty>
0

> <r_epik_Charging_Adjusted_Penalty>
0

> <i_epik_Tot_Q>
0

> <i_epik_Tot_abs_Q>
0

> <s_epik_Chemistry_Notes>
This compound contains an acetal/aminal-like group ( X-CH(R)-Y where X, Y are N, S, or O) that may be acid/base labile, releasing an aldehyde.

> <s_lp_Force_Field>
OPLS_2005

> <r_lp_Energy>
24.5474

> <b_lp_Chiralities_Consistent>
1

> <s_lp_Variant>
4:10-1

> <s_i_glide_gridfile>
glide-grid_1

> <i_i_glide_lignum>
1

> <i_i_glide_rotatable_bonds>
5

> <r_i_docking_score>
-6.63697353482178

> <r_i_glide_ligand_efficiency>
-0.276540563950907

> <r_i_glide_ligand_efficiency_sa>
-0.797681018216505

> <r_i_glide_ligand_efficiency_ln>
-1.58853231775356

> <r_i_glide_gscore>
-6.63697353482178

> <r_i_glide_lipo>
-2.32628718959351

> <r_i_glide_hbond>
-0.32

> <r_i_glide_metal>
0

> <r_i_glide_rewards>
-2.74846070596885

> <r_i_glide_evdw>
-31.3778591156006

> <r_i_glide_ecoul>
-2.50915312767029

> <r_i_glide_erotb>
0.708097968863318

> <r_i_glide_esite>
-0.00505768319215506

> <r_i_glide_emodel>
-46.6715301706024

> <r_i_glide_energy>
-33.8870122432709

> <r_i_glide_einternal>
4.22770118713379

> <r_i_glide_intrahb_reward>
0

> <r_i_glide_emodel_strain>
0.0978431701660156

> <r_i_glide_gscore_strain>
0

> <i_i_glide_confnum>
14

> <i_i_glide_posenum>
382

> <r_i_glide_eff_state_penalty>
0

> <s_m_job_name>
glide-dock_SP_2

> <s_m_subgroup_title>
glide-dock_SP_2_pv1

> <s_m_subgroupid>
glide-dock_SP_2_pv1

> <b_m_subgroup_collapsed>
0

$$$$
4:11
                    3D
 Schrodinger Suite 2020-4.
 43 46  0  0  1  0            999 V2000
    6.4082   14.9463   24.7329 C   0  0  0  0  0  0
    7.4864   14.1550   23.9753 C   0  0  0  0  0  0
    7.0491   12.7681   23.4387 C   0  0  0  0  0  0
    6.7351   11.7279   24.5320 C   0  0  0  0  0  0
    5.4217   11.0586   24.3466 N   0  0  0  0  0  0
    5.1684    9.7257   24.2811 C   0  0  0  0  0  0
    6.2532    8.6778   24.2832 C   0  0  0  0  0  0
    5.8240    7.2043   24.3203 C   0  0  0  0  0  0
    4.7726    6.7492   25.1490 C   0  0  0  0  0  0
    4.4080    5.3978   25.1867 C   0  0  0  0  0  0
    5.1131    4.5195   24.3729 C   0  0  0  0  0  0
    6.1409    4.9411   23.5795 C   0  0  0  0  0  0
    6.5387    6.2736   23.5476 C   0  0  0  0  0  0
    6.6729    3.8761   22.9235 O   0  0  0  0  0  0
    5.7910    2.8120   23.1659 C   0  0  0  0  0  0
    4.9716    3.1747   24.2459 O   0  0  0  0  0  0
    3.8803    9.4658   24.2095 N   0  0  0  0  0  0
    3.2745   10.6603   24.2755 C   0  0  0  0  0  0
    1.9093   11.0315   24.3197 C   0  0  0  0  0  0
    0.8633   10.1168   24.3536 N   0  0  0  0  0  0
    1.5907   12.3527   24.3479 N   0  0  0  0  0  0
    2.5990   13.2348   24.3475 C   0  0  0  0  0  0
    3.9184   13.0070   24.3612 N   0  0  0  0  0  0
    4.2034   11.6831   24.3242 C   0  0  0  0  0  0
    6.7953   15.9122   25.0587 H   0  0  0  0  0  0
    5.5413   15.1403   24.1017 H   0  0  0  0  0  0
    6.0650   14.4180   25.6225 H   0  0  0  0  0  0
    8.3471   14.0495   24.6349 H   0  0  0  0  0  0
    7.8469   14.7637   23.1454 H   0  0  0  0  0  0
    7.8494   12.3775   22.8084 H   0  0  0  0  0  0
    6.2036   12.8568   22.7600 H   0  0  0  0  0  0
    6.7070   12.1627   25.5330 H   0  0  0  0  0  0
    7.5043   10.9578   24.5285 H   0  0  0  0  0  0
    6.8786    8.8456   23.4047 H   0  0  0  0  0  0
    6.8938    8.8405   25.1477 H   0  0  0  0  0  0
    4.2337    7.4457   25.7745 H   0  0  0  0  0  0
    3.6076    5.0596   25.8280 H   0  0  0  0  0  0
    7.3672    6.5842   22.9290 H   0  0  0  0  0  0
    6.3429    1.8986   23.3913 H   0  0  0  0  0  0
    5.1686    2.6511   22.2834 H   0  0  0  0  0  0
    1.0561    9.1206   24.3508 H   0  0  0  0  0  0
   -0.0751   10.4721   24.4369 H   0  0  0  0  0  0
    2.3089   14.2763   24.3708 H   0  0  0  0  0  0
  1  2  1  0  0  0
  1 25  1  0  0  0
  1 26  1  0  0  0
  1 27  1  0  0  0
  2  3  1  0  0  0
  2 28  1  0  0  0
  2 29  1  0  0  0
  3  4  1  0  0  0
  3 30  1  0  0  0
  3 31  1  0  0  0
  4  5  1  0  0  0
  4 32  1  0  0  0
  4 33  1  0  0  0
  5 24  1  0  0  0
  5  6  1  0  0  0
  6  7  1  0  0  0
  6 17  2  0  0  0
  7  8  1  0  0  0
  7 34  1  0  0  0
  7 35  1  0  0  0
  8 13  1  0  0  0
  8  9  2  0  0  0
  9 10  1  0  0  0
  9 36  1  0  0  0
 10 11  2  0  0  0
 10 37  1  0  0  0
 11 16  1  0  0  0
 11 12  1  0  0  0
 12 13  2  0  0  0
 12 14  1  0  0  0
 13 38  1  0  0  0
 14 15  1  0  0  0
 15 16  1  0  0  0
 15 39  1  0  0  0
 15 40  1  0  0  0
 17 18  1  0  0  0
 18 24  2  0  0  0
 18 19  1  0  0  0
 19 20  1  0  0  0
 19 21  2  0  0  0
 20 41  1  0  0  0
 20 42  1  0  0  0
 21 22  1  0  0  0
 22 23  2  0  0  0
 22 43  1  0  0  0
 23 24  1  0  0  0
M  END
> <s_m_entry_id>
20

> <s_m_entry_name>
out_pv.2

> <s_m_Source_Path>
/home//03_prep_map

> <s_m_Source_File>
out_pv.maegz

> <i_m_Source_File_Index>
2

> <s_m_source_file>
/tmp/tmpyr555pyi/0icjb2kpi.smi

> <i_m_source_file_index>
5

> <i_lp_mmshare_version>
52144

> <i_f3d_flags>
0

> <s_epik_input>
W05IMl1jMW5bY0hdbmMoYzEyKW4oW0NIMl1bQ0gyXVtDSDJdW0NIM10pYyhuMilbQ0gyXWMoW2NIXVtjSF0zKVtjSF1jKGMzNClPW0NIMl1PNA==

> <s_epik_cmdline>
J2VwaWtfcHl0aG9uJywgJy1waHQnLCAnMS4wJywgJy1waCcsICc3LjAnLCAnLXRuJywgJzgnLCAnLW1hJywgJzIwMCcsICctaW1hZScsICc8aW5maWxlLm1hZT4nLCAnLW9tYWUnLCAnPG91dGZpbGUubWFlPic=

> <r_lp_tautomer_probability>
1

> <r_epik_Ionization_Penalty>
0.00146126

> <r_epik_Ionization_Penalty_Charging>
0

> <r_epik_Ionization_Penalty_Neutral>
0.00146126

> <r_epik_State_Penalty>
0

> <r_epik_Charging_Adjusted_Penalty>
0

> <i_epik_Tot_Q>
0

> <i_epik_Tot_abs_Q>
0

> <s_epik_Chemistry_Notes>
This compound contains an acetal/aminal-like group ( X-CH(R)-Y where X, Y are N, S, or O) that may be acid/base labile, releasing an aldehyde.

> <s_lp_Force_Field>
OPLS_2005

> <r_lp_Energy>
24.5474

> <b_lp_Chiralities_Consistent>
1

> <s_lp_Variant>
4:11-1

> <s_i_glide_gridfile>
glide-grid_1

> <i_i_glide_lignum>
1

> <i_i_glide_rotatable_bonds>
5

> <r_i_docking_score>
-6.54961185172938

> <r_i_glide_ligand_efficiency>
-0.272900493822058

> <r_i_glide_ligand_efficiency_sa>
-0.787181239069183

> <r_i_glide_ligand_efficiency_ln>
-1.56762265822313

> <r_i_glide_gscore>
-6.54961185172938

> <r_i_glide_lipo>
-2.05052407721487

> <r_i_glide_hbond>
-0.495315585598969

> <r_i_glide_metal>
0

> <r_i_glide_rewards>
-2.57948648935617

> <r_i_glide_evdw>
-34.2262916564941

> <r_i_glide_ecoul>
-2.80712723731995

> <r_i_glide_erotb>
0.708097968863318

> <r_i_glide_esite>
0

> <r_i_glide_emodel>
-48.048843357795

> <r_i_glide_energy>
-37.0334188938141

> <r_i_glide_einternal>
7.37367725372314

> <r_i_glide_intrahb_reward>
0

> <r_i_glide_emodel_strain>
0.0978431701660156

> <r_i_glide_gscore_strain>
0

> <i_i_glide_confnum>
10

> <i_i_glide_posenum>
96

> <r_i_glide_eff_state_penalty>
0

> <s_m_job_name>
glide-dock_SP_2

> <s_m_subgroup_title>
glide-dock_SP_2_pv1

> <s_m_subgroupid>
glide-dock_SP_2_pv1

> <b_m_subgroup_collapsed>
0

$$$$
4:12
                    3D
 Schrodinger Suite 2020-4.
 43 46  0  0  1  0            999 V2000
    5.3162   15.8016   25.1983 C   0  0  0  0  0  0
    6.3360   14.6492   25.2076 C   0  0  0  0  0  0
    5.6818   13.2544   25.2589 C   0  0  0  0  0  0
    5.0576   12.8186   23.9206 C   0  0  0  0  0  0
    3.9288   11.8779   24.0950 N   0  0  0  0  0  0
    3.9631   10.5262   24.1815 C   0  0  0  0  0  0
    5.2424    9.7301   24.1342 C   0  0  0  0  0  0
    5.1589    8.2004   24.2734 C   0  0  0  0  0  0
    4.2481    7.5659   25.1471 C   0  0  0  0  0  0
    4.2209    6.1738   25.2891 C   0  0  0  0  0  0
    5.1231    5.4333   24.5376 C   0  0  0  0  0  0
    6.0174    6.0345   23.6993 C   0  0  0  0  0  0
    6.0731    7.4163   23.5486 C   0  0  0  0  0  0
    6.8090    5.0869   23.1331 O   0  0  0  0  0  0
    6.2003    3.8630   23.4480 C   0  0  0  0  0  0
    5.3228    4.0898   24.5181 O   0  0  0  0  0  0
    2.7586   10.0101   24.3020 N   0  0  0  0  0  0
    1.9273   11.0605   24.3564 C   0  0  0  0  0  0
    0.5287   11.1504   24.5420 C   0  0  0  0  0  0
   -0.2962   10.0536   24.7478 N   0  0  0  0  0  0
   -0.0500   12.3779   24.5205 N   0  0  0  0  0  0
    0.7458   13.4404   24.3476 C   0  0  0  0  0  0
    2.0737   13.4873   24.1684 N   0  0  0  0  0  0
    2.6186   12.2453   24.1987 C   0  0  0  0  0  0
    5.8150   16.7698   25.1420 H   0  0  0  0  0  0
    4.6381   15.7359   24.3478 H   0  0  0  0  0  0
    4.7089   15.7990   26.1055 H   0  0  0  0  0  0
    6.9871   14.7727   26.0736 H   0  0  0  0  0  0
    6.9847   14.7256   24.3354 H   0  0  0  0  0  0
    4.9301   13.2502   26.0532 H   0  0  0  0  0  0
    6.4391   12.5220   25.5465 H   0  0  0  0  0  0
    5.7762   12.3388   23.2556 H   0  0  0  0  0  0
    4.6402   13.6683   23.3859 H   0  0  0  0  0  0
    5.7444    9.9644   23.1945 H   0  0  0  0  0  0
    5.8947   10.0840   24.9333 H   0  0  0  0  0  0
    3.5673    8.1477   25.7545 H   0  0  0  0  0  0
    3.5250    5.7030   25.9675 H   0  0  0  0  0  0
    6.8026    7.8660   22.8929 H   0  0  0  0  0  0
    6.9469    3.1120   23.7063 H   0  0  0  0  0  0
    5.6295    3.5124   22.5866 H   0  0  0  0  0  0
    0.1059    9.1215   24.7145 H   0  0  0  0  0  0
   -1.2885   10.2113   24.8211 H   0  0  0  0  0  0
    0.2473   14.3984   24.3425 H   0  0  0  0  0  0
  1  2  1  0  0  0
  1 25  1  0  0  0
  1 26  1  0  0  0
  1 27  1  0  0  0
  2  3  1  0  0  0
  2 28  1  0  0  0
  2 29  1  0  0  0
  3  4  1  0  0  0
  3 30  1  0  0  0
  3 31  1  0  0  0
  4  5  1  0  0  0
  4 32  1  0  0  0
  4 33  1  0  0  0
  5 24  1  0  0  0
  5  6  1  0  0  0
  6  7  1  0  0  0
  6 17  2  0  0  0
  7  8  1  0  0  0
  7 34  1  0  0  0
  7 35  1  0  0  0
  8 13  1  0  0  0
  8  9  2  0  0  0
  9 10  1  0  0  0
  9 36  1  0  0  0
 10 11  2  0  0  0
 10 37  1  0  0  0
 11 16  1  0  0  0
 11 12  1  0  0  0
 12 13  2  0  0  0
 12 14  1  0  0  0
 13 38  1  0  0  0
 14 15  1  0  0  0
 15 16  1  0  0  0
 15 39  1  0  0  0
 15 40  1  0  0  0
 17 18  1  0  0  0
 18 24  2  0  0  0
 18 19  1  0  0  0
 19 20  1  0  0  0
 19 21  2  0  0  0
 20 41  1  0  0  0
 20 42  1  0  0  0
 21 22  1  0  0  0
 22 23  2  0  0  0
 22 43  1  0  0  0
 23 24  1  0  0  0
M  END
> <s_m_entry_id>
21

> <s_m_entry_name>
out_pv.2

> <s_m_Source_Path>
/home//03_prep_map

> <s_m_Source_File>
out_pv.maegz

> <i_m_Source_File_Index>
2

> <s_m_source_file>
/tmp/tmpyr555pyi/0icjb2kpi.smi

> <i_m_source_file_index>
5

> <i_lp_mmshare_version>
52144

> <i_f3d_flags>
0

> <s_epik_input>
W05IMl1jMW5bY0hdbmMoYzEyKW4oW0NIMl1bQ0gyXVtDSDJdW0NIM10pYyhuMilbQ0gyXWMoW2NIXVtjSF0zKVtjSF1jKGMzNClPW0NIMl1PNA==

> <s_epik_cmdline>
J2VwaWtfcHl0aG9uJywgJy1waHQnLCAnMS4wJywgJy1waCcsICc3LjAnLCAnLXRuJywgJzgnLCAnLW1hJywgJzIwMCcsICctaW1hZScsICc8aW5maWxlLm1hZT4nLCAnLW9tYWUnLCAnPG91dGZpbGUubWFlPic=

> <r_lp_tautomer_probability>
1

> <r_epik_Ionization_Penalty>
0.00146126

> <r_epik_Ionization_Penalty_Charging>
0

> <r_epik_Ionization_Penalty_Neutral>
0.00146126

> <r_epik_State_Penalty>
0

> <r_epik_Charging_Adjusted_Penalty>
0

> <i_epik_Tot_Q>
0

> <i_epik_Tot_abs_Q>
0

> <s_epik_Chemistry_Notes>
This compound contains an acetal/aminal-like group ( X-CH(R)-Y where X, Y are N, S, or O) that may be acid/base labile, releasing an aldehyde.

> <s_lp_Force_Field>
OPLS_2005

> <r_lp_Energy>
24.5474

> <b_lp_Chiralities_Consistent>
1

> <s_lp_Variant>
4:12-1

> <s_i_glide_gridfile>
glide-grid_1

> <i_i_glide_lignum>
1

> <i_i_glide_rotatable_bonds>
5

> <r_i_docking_score>
-6.49660076207707

> <r_i_glide_ligand_efficiency>
-0.270691698419878

> <r_i_glide_ligand_efficiency_sa>
-0.780809970636551

> <r_i_glide_ligand_efficiency_ln>
-1.55493467194893

> <r_i_glide_gscore>
-6.49660076207707

> <r_i_glide_lipo>
-2.22246923653901

> <r_i_glide_hbond>
-0.696204337885138

> <r_i_glide_metal>
0

> <r_i_glide_rewards>
-2.35436002833519

> <r_i_glide_evdw>
-31.1640129089355

> <r_i_glide_ecoul>
-2.00659036636353

> <r_i_glide_erotb>
0.708097968863318

> <r_i_glide_esite>
-0.072475927779737

> <r_i_glide_emodel>
-46.2325877070816

> <r_i_glide_energy>
-33.1706032752991

> <r_i_glide_einternal>
3.04256367683411

> <r_i_glide_intrahb_reward>
0

> <r_i_glide_emodel_strain>
0.0978431701660156

> <r_i_glide_gscore_strain>
0

> <i_i_glide_confnum>
20

> <i_i_glide_posenum>
161

> <r_i_glide_eff_state_penalty>
0

> <s_m_job_name>
glide-dock_SP_2

> <s_m_subgroup_title>
glide-dock_SP_2_pv1

> <s_m_subgroupid>
glide-dock_SP_2_pv1

> <b_m_subgroup_collapsed>
0

$$$$
4:13
                    3D
 Schrodinger Suite 2020-4.
 43 46  0  0  1  0            999 V2000
    6.9234   14.6291   26.7011 C   0  0  0  0  0  0
    6.1208   13.9099   25.6070 C   0  0  0  0  0  0
    6.9261   12.7990   24.9056 C   0  0  0  0  0  0
    6.2434   12.1181   23.6999 C   0  0  0  0  0  0
    4.9759   11.4241   24.0257 N   0  0  0  0  0  0
    4.7706   10.0982   24.2470 C   0  0  0  0  0  0
    5.8930    9.0864   24.2715 C   0  0  0  0  0  0
    5.5630    7.5864   24.2719 C   0  0  0  0  0  0
    6.4345    6.7237   23.5744 C   0  0  0  0  0  0
    6.2314    5.3388   23.5479 C   0  0  0  0  0  0
    5.1352    4.8417   24.2386 C   0  0  0  0  0  0
    4.2942    5.6593   24.9388 C   0  0  0  0  0  0
    4.4865    7.0355   24.9971 C   0  0  0  0  0  0
    3.3432    4.9038   25.5479 O   0  0  0  0  0  0
    3.4702    3.6279   24.9798 C   0  0  0  0  0  0
    4.7390    3.5512   24.3900 O   0  0  0  0  0  0
    3.4987    9.8207   24.4330 N   0  0  0  0  0  0
    2.8613   11.0005   24.3557 C   0  0  0  0  0  0
    1.4972   11.3572   24.4864 C   0  0  0  0  0  0
    0.4787   10.4495   24.7479 N   0  0  0  0  0  0
    1.1491   12.6643   24.3479 N   0  0  0  0  0  0
    2.1249   13.5483   24.1007 C   0  0  0  0  0  0
    3.4354   13.3327   23.9480 N   0  0  0  0  0  0
    3.7505   12.0237   24.0963 C   0  0  0  0  0  0
    6.3344   15.4296   27.1495 H   0  0  0  0  0  0
    7.2144   13.9432   27.4978 H   0  0  0  0  0  0
    7.8311   15.0807   26.2984 H   0  0  0  0  0  0
    5.7922   14.6435   24.8688 H   0  0  0  0  0  0
    5.2158   13.4956   26.0522 H   0  0  0  0  0  0
    7.2335   12.0495   25.6297 H   0  0  0  0  0  0
    7.8472   13.2465   24.5357 H   0  0  0  0  0  0
    6.9041   11.3977   23.2213 H   0  0  0  0  0  0
    5.9833   12.8495   22.9376 H   0  0  0  0  0  0
    6.5279    9.2703   23.4056 H   0  0  0  0  0  0
    6.5102    9.2685   25.1479 H   0  0  0  0  0  0
    7.2872    7.1277   23.0490 H   0  0  0  0  0  0
    6.9080    4.6919   23.0100 H   0  0  0  0  0  0
    3.8256    7.6475   25.5918 H   0  0  0  0  0  0
    2.7131    3.5010   24.2021 H   0  0  0  0  0  0
    3.3416    2.8510   25.7341 H   0  0  0  0  0  0
    0.7012    9.4651   24.8251 H   0  0  0  0  0  0
   -0.4648   10.7935   24.8330 H   0  0  0  0  0  0
    1.8089   14.5767   23.9989 H   0  0  0  0  0  0
  1  2  1  0  0  0
  1 25  1  0  0  0
  1 26  1  0  0  0
  1 27  1  0  0  0
  2  3  1  0  0  0
  2 28  1  0  0  0
  2 29  1  0  0  0
  3  4  1  0  0  0
  3 30  1  0  0  0
  3 31  1  0  0  0
  4  5  1  0  0  0
  4 32  1  0  0  0
  4 33  1  0  0  0
  5 24  1  0  0  0
  5  6  1  0  0  0
  6  7  1  0  0  0
  6 17  2  0  0  0
  7  8  1  0  0  0
  7 34  1  0  0  0
  7 35  1  0  0  0
  8 13  1  0  0  0
  8  9  2  0  0  0
  9 10  1  0  0  0
  9 36  1  0  0  0
 10 11  2  0  0  0
 10 37  1  0  0  0
 11 16  1  0  0  0
 11 12  1  0  0  0
 12 13  2  0  0  0
 12 14  1  0  0  0
 13 38  1  0  0  0
 14 15  1  0  0  0
 15 16  1  0  0  0
 15 39  1  0  0  0
 15 40  1  0  0  0
 17 18  1  0  0  0
 18 24  2  0  0  0
 18 19  1  0  0  0
 19 20  1  0  0  0
 19 21  2  0  0  0
 20 41  1  0  0  0
 20 42  1  0  0  0
 21 22  1  0  0  0
 22 23  2  0  0  0
 22 43  1  0  0  0
 23 24  1  0  0  0
M  END
> <s_m_entry_id>
22

> <s_m_entry_name>
out_pv.2

> <s_m_Source_Path>
/home//03_prep_map

> <s_m_Source_File>
out_pv.maegz

> <i_m_Source_File_Index>
2

> <s_m_source_file>
/tmp/tmpyr555pyi/0icjb2kpi.smi

> <i_m_source_file_index>
5

> <i_lp_mmshare_version>
52144

> <i_f3d_flags>
0

> <s_epik_input>
W05IMl1jMW5bY0hdbmMoYzEyKW4oW0NIMl1bQ0gyXVtDSDJdW0NIM10pYyhuMilbQ0gyXWMoW2NIXVtjSF0zKVtjSF1jKGMzNClPW0NIMl1PNA==

> <s_epik_cmdline>
J2VwaWtfcHl0aG9uJywgJy1waHQnLCAnMS4wJywgJy1waCcsICc3LjAnLCAnLXRuJywgJzgnLCAnLW1hJywgJzIwMCcsICctaW1hZScsICc8aW5maWxlLm1hZT4nLCAnLW9tYWUnLCAnPG91dGZpbGUubWFlPic=

> <r_lp_tautomer_probability>
1

> <r_epik_Ionization_Penalty>
0.00146126

> <r_epik_Ionization_Penalty_Charging>
0

> <r_epik_Ionization_Penalty_Neutral>
0.00146126

> <r_epik_State_Penalty>
0

> <r_epik_Charging_Adjusted_Penalty>
0

> <i_epik_Tot_Q>
0

> <i_epik_Tot_abs_Q>
0

> <s_epik_Chemistry_Notes>
This compound contains an acetal/aminal-like group ( X-CH(R)-Y where X, Y are N, S, or O) that may be acid/base labile, releasing an aldehyde.

> <s_lp_Force_Field>
OPLS_2005

> <r_lp_Energy>
24.5474

> <b_lp_Chiralities_Consistent>
1

> <s_lp_Variant>
4:13-1

> <s_i_glide_gridfile>
glide-grid_1

> <i_i_glide_lignum>
1

> <i_i_glide_rotatable_bonds>
5

> <r_i_docking_score>
-6.47926598492528

> <r_i_glide_ligand_efficiency>
-0.269969416038553

> <r_i_glide_ligand_efficiency_sa>
-0.778726547730546

> <r_i_glide_ligand_efficiency_ln>
-1.55078566433542

> <r_i_glide_gscore>
-6.47926598492528

> <r_i_glide_lipo>
-2.0982599597803

> <r_i_glide_hbond>
-0.377330135579679

> <r_i_glide_metal>
0

> <r_i_glide_rewards>
-2.65749055315828

> <r_i_glide_evdw>
-34.5769538879395

> <r_i_glide_ecoul>
-2.07850122451782

> <r_i_glide_erotb>
0.708097968863318

> <r_i_glide_esite>
-0.0136604271956843

> <r_i_glide_emodel>
-50.638284334916

> <r_i_glide_energy>
-36.6554551124573

> <r_i_glide_einternal>
1.12304949760437

> <r_i_glide_intrahb_reward>
0

> <r_i_glide_emodel_strain>
0.0978431701660156

> <r_i_glide_gscore_strain>
0

> <i_i_glide_confnum>
4

> <i_i_glide_posenum>
367

> <r_i_glide_eff_state_penalty>
0

> <s_m_job_name>
glide-dock_SP_2

> <s_m_subgroup_title>
glide-dock_SP_2_pv1

> <s_m_subgroupid>
glide-dock_SP_2_pv1

> <b_m_subgroup_collapsed>
0

$$$$
4:14
                    3D
 Schrodinger Suite 2020-4.
 43 46  0  0  1  0            999 V2000
    7.6149   14.6448   24.8742 C   0  0  0  0  0  0
    6.1515   15.0131   25.1624 C   0  0  0  0  0  0
    5.2234   13.8038   25.3919 C   0  0  0  0  0  0
    5.0918   12.8656   24.1672 C   0  0  0  0  0  0
    3.9613   11.9159   24.2889 N   0  0  0  0  0  0
    3.9968   10.5581   24.3457 C   0  0  0  0  0  0
    5.2756    9.7595   24.3056 C   0  0  0  0  0  0
    5.1905    8.2238   24.3479 C   0  0  0  0  0  0
    4.2472    7.5375   25.1479 C   0  0  0  0  0  0
    4.2255    6.1387   25.2172 C   0  0  0  0  0  0
    5.1706    5.4456   24.4737 C   0  0  0  0  0  0
    6.0992    6.0932   23.7108 C   0  0  0  0  0  0
    6.1444    7.4806   23.6281 C   0  0  0  0  0  0
    6.9283    5.1775   23.1455 O   0  0  0  0  0  0
    6.3116    3.9377   23.3644 C   0  0  0  0  0  0
    5.3848    4.1054   24.4026 O   0  0  0  0  0  0
    2.7943   10.0343   24.4239 N   0  0  0  0  0  0
    1.9528   11.0763   24.4400 C   0  0  0  0  0  0
    0.5456   11.1538   24.5637 C   0  0  0  0  0  0
   -0.2771   10.0495   24.7479 N   0  0  0  0  0  0
   -0.0439   12.3750   24.4976 N   0  0  0  0  0  0
    0.7491   13.4434   24.3479 C   0  0  0  0  0  0
    2.0826   13.4999   24.2293 N   0  0  0  0  0  0
    2.6403   12.2668   24.3058 C   0  0  0  0  0  0
    8.2273   15.5416   24.7731 H   0  0  0  0  0  0
    8.0387   14.0494   25.6831 H   0  0  0  0  0  0
    7.7142   14.0772   23.9486 H   0  0  0  0  0  0
    5.7616   15.6243   24.3479 H   0  0  0  0  0  0
    6.1220   15.6534   26.0459 H   0  0  0  0  0  0
    4.2432   14.1885   25.6768 H   0  0  0  0  0  0
    5.5810   13.2495   26.2568 H   0  0  0  0  0  0
    6.0019   12.2916   23.9991 H   0  0  0  0  0  0
    4.8858   13.4297   23.2602 H   0  0  0  0  0  0
    5.8177   10.0459   23.4035 H   0  0  0  0  0  0
    5.8935   10.0657   25.1479 H   0  0  0  0  0  0
    3.5365    8.0784   25.7550 H   0  0  0  0  0  0
    3.5049    5.6298   25.8397 H   0  0  0  0  0  0
    6.9005    7.9694   23.0315 H   0  0  0  0  0  0
    7.0472    3.1734   23.6153 H   0  0  0  0  0  0
    5.7844    3.6328   22.4578 H   0  0  0  0  0  0
    0.1353    9.1211   24.7306 H   0  0  0  0  0  0
   -1.2743   10.1939   24.7673 H   0  0  0  0  0  0
    0.2472   14.3988   24.3042 H   0  0  0  0  0  0
  1  2  1  0  0  0
  1 25  1  0  0  0
  1 26  1  0  0  0
  1 27  1  0  0  0
  2  3  1  0  0  0
  2 28  1  0  0  0
  2 29  1  0  0  0
  3  4  1  0  0  0
  3 30  1  0  0  0
  3 31  1  0  0  0
  4  5  1  0  0  0
  4 32  1  0  0  0
  4 33  1  0  0  0
  5 24  1  0  0  0
  5  6  1  0  0  0
  6  7  1  0  0  0
  6 17  2  0  0  0
  7  8  1  0  0  0
  7 34  1  0  0  0
  7 35  1  0  0  0
  8 13  1  0  0  0
  8  9  2  0  0  0
  9 10  1  0  0  0
  9 36  1  0  0  0
 10 11  2  0  0  0
 10 37  1  0  0  0
 11 16  1  0  0  0
 11 12  1  0  0  0
 12 13  2  0  0  0
 12 14  1  0  0  0
 13 38  1  0  0  0
 14 15  1  0  0  0
 15 16  1  0  0  0
 15 39  1  0  0  0
 15 40  1  0  0  0
 17 18  1  0  0  0
 18 24  2  0  0  0
 18 19  1  0  0  0
 19 20  1  0  0  0
 19 21  2  0  0  0
 20 41  1  0  0  0
 20 42  1  0  0  0
 21 22  1  0  0  0
 22 23  2  0  0  0
 22 43  1  0  0  0
 23 24  1  0  0  0
M  END
> <s_m_entry_id>
23

> <s_m_entry_name>
out_pv.2

> <s_m_Source_Path>
/home//03_prep_map

> <s_m_Source_File>
out_pv.maegz

> <i_m_Source_File_Index>
2

> <s_m_source_file>
/tmp/tmpyr555pyi/0icjb2kpi.smi

> <i_m_source_file_index>
5

> <i_lp_mmshare_version>
52144

> <i_f3d_flags>
0

> <s_epik_input>
W05IMl1jMW5bY0hdbmMoYzEyKW4oW0NIMl1bQ0gyXVtDSDJdW0NIM10pYyhuMilbQ0gyXWMoW2NIXVtjSF0zKVtjSF1jKGMzNClPW0NIMl1PNA==

> <s_epik_cmdline>
J2VwaWtfcHl0aG9uJywgJy1waHQnLCAnMS4wJywgJy1waCcsICc3LjAnLCAnLXRuJywgJzgnLCAnLW1hJywgJzIwMCcsICctaW1hZScsICc8aW5maWxlLm1hZT4nLCAnLW9tYWUnLCAnPG91dGZpbGUubWFlPic=

> <r_lp_tautomer_probability>
1

> <r_epik_Ionization_Penalty>
0.00146126

> <r_epik_Ionization_Penalty_Charging>
0

> <r_epik_Ionization_Penalty_Neutral>
0.00146126

> <r_epik_State_Penalty>
0

> <r_epik_Charging_Adjusted_Penalty>
0

> <i_epik_Tot_Q>
0

> <i_epik_Tot_abs_Q>
0

> <s_epik_Chemistry_Notes>
This compound contains an acetal/aminal-like group ( X-CH(R)-Y where X, Y are N, S, or O) that may be acid/base labile, releasing an aldehyde.

> <s_lp_Force_Field>
OPLS_2005

> <r_lp_Energy>
24.5474

> <b_lp_Chiralities_Consistent>
1

> <s_lp_Variant>
4:14-1

> <s_i_glide_gridfile>
glide-grid_1

> <i_i_glide_lignum>
1

> <i_i_glide_rotatable_bonds>
5

> <r_i_docking_score>
-6.47161001983286

> <r_i_glide_ligand_efficiency>
-0.269650417493036

> <r_i_glide_ligand_efficiency_sa>
-0.777806396701118

> <r_i_glide_ligand_efficiency_ln>
-1.54895324057946

> <r_i_glide_gscore>
-6.47161001983286

> <r_i_glide_lipo>
-2.26949525359932

> <r_i_glide_hbond>
-0.665757947685587

> <r_i_glide_metal>
0

> <r_i_glide_rewards>
-2.32618781230289

> <r_i_glide_evdw>
-31.1822242736816

> <r_i_glide_ecoul>
-1.91202461719513

> <r_i_glide_erotb>
0.708097968863318

> <r_i_glide_esite>
-0.0723520688450255

> <r_i_glide_emodel>
-46.7599855102494

> <r_i_glide_energy>
-33.0942488908768

> <r_i_glide_einternal>
1.72286319732666

> <r_i_glide_intrahb_reward>
0

> <r_i_glide_emodel_strain>
0.0978431701660156

> <r_i_glide_gscore_strain>
0

> <i_i_glide_confnum>
20

> <i_i_glide_posenum>
208

> <r_i_glide_eff_state_penalty>
0

> <s_m_job_name>
glide-dock_SP_2

> <s_m_subgroup_title>
glide-dock_SP_2_pv1

> <s_m_subgroupid>
glide-dock_SP_2_pv1

> <b_m_subgroup_collapsed>
0

$$$$
4:15
                    3D
 Schrodinger Suite 2020-4.
 43 46  0  0  1  0            999 V2000
    6.8157   15.2495   26.5093 C   0  0  0  0  0  0
    6.7113   14.2342   25.3643 C   0  0  0  0  0  0
    5.3026   13.6313   25.2282 C   0  0  0  0  0  0
    5.2351   12.5243   24.1525 C   0  0  0  0  0  0
    4.0349   11.6637   24.2796 N   0  0  0  0  0  0
    3.9918   10.3069   24.3438 C   0  0  0  0  0  0
    5.2340    9.4514   24.3008 C   0  0  0  0  0  0
    5.0867    7.9237   24.3196 C   0  0  0  0  0  0
    4.1519    7.2656   25.1484 C   0  0  0  0  0  0
    4.0818    5.8669   25.2011 C   0  0  0  0  0  0
    4.9668    5.1488   24.4068 C   0  0  0  0  0  0
    5.8822    5.7715   23.6087 C   0  0  0  0  0  0
    5.9783    7.1568   23.5479 C   0  0  0  0  0  0
    6.6472    4.8371   22.9860 O   0  0  0  0  0  0
    6.0251    3.6084   23.2496 C   0  0  0  0  0  0
    5.1298    3.8030   24.3120 O   0  0  0  0  0  0
    2.7636    9.8501   24.4358 N   0  0  0  0  0  0
    1.9831   10.9415   24.4442 C   0  0  0  0  0  0
    0.5822   11.1015   24.5657 C   0  0  0  0  0  0
   -0.3049   10.0495   24.7479 N   0  0  0  0  0  0
    0.0618   12.3529   24.4968 N   0  0  0  0  0  0
    0.9126   13.3744   24.3479 C   0  0  0  0  0  0
    2.2472   13.3553   24.2303 N   0  0  0  0  0  0
    2.7361   12.0924   24.3037 C   0  0  0  0  0  0
    7.8274   15.6495   26.5783 H   0  0  0  0  0  0
    6.1369   16.0895   26.3590 H   0  0  0  0  0  0
    6.5766   14.7931   27.4704 H   0  0  0  0  0  0
    7.4382   13.4387   25.5360 H   0  0  0  0  0  0
    6.9988   14.7130   24.4267 H   0  0  0  0  0  0
    4.6011   14.4282   24.9768 H   0  0  0  0  0  0
    4.9777   13.2495   26.1962 H   0  0  0  0  0  0
    6.1134   11.8827   24.2017 H   0  0  0  0  0  0
    5.1896   12.9418   23.1479 H   0  0  0  0  0  0
    5.7951    9.7277   23.4069 H   0  0  0  0  0  0
    5.8600    9.7149   25.1523 H   0  0  0  0  0  0
    3.4868    7.8318   25.7846 H   0  0  0  0  0  0
    3.3711    5.3761   25.8486 H   0  0  0  0  0  0
    6.7259    7.6267   22.9260 H   0  0  0  0  0  0
    6.7660    2.8498   23.5040 H   0  0  0  0  0  0
    5.4674    3.2922   22.3657 H   0  0  0  0  0  0
    0.0558    9.1001   24.7363 H   0  0  0  0  0  0
   -1.2923   10.2513   24.7632 H   0  0  0  0  0  0
    0.4589   14.3544   24.3048 H   0  0  0  0  0  0
  1  2  1  0  0  0
  1 25  1  0  0  0
  1 26  1  0  0  0
  1 27  1  0  0  0
  2  3  1  0  0  0
  2 28  1  0  0  0
  2 29  1  0  0  0
  3  4  1  0  0  0
  3 30  1  0  0  0
  3 31  1  0  0  0
  4  5  1  0  0  0
  4 32  1  0  0  0
  4 33  1  0  0  0
  5 24  1  0  0  0
  5  6  1  0  0  0
  6  7  1  0  0  0
  6 17  2  0  0  0
  7  8  1  0  0  0
  7 34  1  0  0  0
  7 35  1  0  0  0
  8 13  1  0  0  0
  8  9  2  0  0  0
  9 10  1  0  0  0
  9 36  1  0  0  0
 10 11  2  0  0  0
 10 37  1  0  0  0
 11 16  1  0  0  0
 11 12  1  0  0  0
 12 13  2  0  0  0
 12 14  1  0  0  0
 13 38  1  0  0  0
 14 15  1  0  0  0
 15 16  1  0  0  0
 15 39  1  0  0  0
 15 40  1  0  0  0
 17 18  1  0  0  0
 18 24  2  0  0  0
 18 19  1  0  0  0
 19 20  1  0  0  0
 19 21  2  0  0  0
 20 41  1  0  0  0
 20 42  1  0  0  0
 21 22  1  0  0  0
 22 23  2  0  0  0
 22 43  1  0  0  0
 23 24  1  0  0  0
M  END
> <s_m_entry_id>
24

> <s_m_entry_name>
out_pv.2

> <s_m_Source_Path>
/home//03_prep_map

> <s_m_Source_File>
out_pv.maegz

> <i_m_Source_File_Index>
2

> <s_m_source_file>
/tmp/tmpyr555pyi/0icjb2kpi.smi

> <i_m_source_file_index>
5

> <i_lp_mmshare_version>
52144

> <i_f3d_flags>
0

> <s_epik_input>
W05IMl1jMW5bY0hdbmMoYzEyKW4oW0NIMl1bQ0gyXVtDSDJdW0NIM10pYyhuMilbQ0gyXWMoW2NIXVtjSF0zKVtjSF1jKGMzNClPW0NIMl1PNA==

> <s_epik_cmdline>
J2VwaWtfcHl0aG9uJywgJy1waHQnLCAnMS4wJywgJy1waCcsICc3LjAnLCAnLXRuJywgJzgnLCAnLW1hJywgJzIwMCcsICctaW1hZScsICc8aW5maWxlLm1hZT4nLCAnLW9tYWUnLCAnPG91dGZpbGUubWFlPic=

> <r_lp_tautomer_probability>
1

> <r_epik_Ionization_Penalty>
0.00146126

> <r_epik_Ionization_Penalty_Charging>
0

> <r_epik_Ionization_Penalty_Neutral>
0.00146126

> <r_epik_State_Penalty>
0

> <r_epik_Charging_Adjusted_Penalty>
0

> <i_epik_Tot_Q>
0

> <i_epik_Tot_abs_Q>
0

> <s_epik_Chemistry_Notes>
This compound contains an acetal/aminal-like group ( X-CH(R)-Y where X, Y are N, S, or O) that may be acid/base labile, releasing an aldehyde.

> <s_lp_Force_Field>
OPLS_2005

> <r_lp_Energy>
24.5474

> <b_lp_Chiralities_Consistent>
1

> <s_lp_Variant>
4:15-1

> <s_i_glide_gridfile>
glide-grid_1

> <i_i_glide_lignum>
1

> <i_i_glide_rotatable_bonds>
5

> <r_i_docking_score>
-6.4372686993509

> <r_i_glide_ligand_efficiency>
-0.268219529139621

> <r_i_glide_ligand_efficiency_sa>
-0.77367900047975

> <r_i_glide_ligand_efficiency_ln>
-1.54073378676761

> <r_i_glide_gscore>
-6.4372686993509

> <r_i_glide_lipo>
-2.22144277658443

> <r_i_glide_hbond>
-0.649116720656115

> <r_i_glide_metal>
0

> <r_i_glide_rewards>
-2.31176080232847

> <r_i_glide_evdw>
-32.3388824462891

> <r_i_glide_ecoul>
-1.81645500659943

> <r_i_glide_erotb>
0.708097968863318

> <r_i_glide_esite>
-0.0736339953408451

> <r_i_glide_emodel>
-47.8880732949342

> <r_i_glide_energy>
-34.1553374528885

> <r_i_glide_einternal>
1.43468916416168

> <r_i_glide_intrahb_reward>
0

> <r_i_glide_emodel_strain>
0.0978431701660156

> <r_i_glide_gscore_strain>
0

> <i_i_glide_confnum>
20

> <i_i_glide_posenum>
104

> <r_i_glide_eff_state_penalty>
0

> <s_m_job_name>
glide-dock_SP_2

> <s_m_subgroup_title>
glide-dock_SP_2_pv1

> <s_m_subgroupid>
glide-dock_SP_2_pv1

> <b_m_subgroup_collapsed>
0

$$$$
4:29
                    3D
 Schrodinger Suite 2020-4.
 43 46  0  0  1  0            999 V2000
    2.0212   14.6965   24.2044 C   0  0  0  0  0  0
    3.2803   14.1006   24.8455 C   0  0  0  0  0  0
    3.9280   12.9668   24.0258 C   0  0  0  0  0  0
    2.9618   11.9430   23.3832 C   0  0  0  0  0  0
    2.2175   11.1406   24.3752 N   0  0  0  0  0  0
    2.7465   10.1226   25.0853 C   0  0  0  0  0  0
    4.1642    9.6214   24.9881 C   0  0  0  0  0  0
    4.3202    8.1477   24.6084 C   0  0  0  0  0  0
    5.1821    7.7998   23.5479 C   0  0  0  0  0  0
    5.4052    6.4598   23.2026 C   0  0  0  0  0  0
    4.7464    5.4881   23.9431 C   0  0  0  0  0  0
    3.9146    5.8113   24.9770 C   0  0  0  0  0  0
    3.6830    7.1316   25.3461 C   0  0  0  0  0  0
    3.4472    4.6697   25.5470 O   0  0  0  0  0  0
    3.8120    3.6424   24.6643 C   0  0  0  0  0  0
    4.8281    4.1363   23.8352 O   0  0  0  0  0  0
    1.8945    9.6495   25.9479 N   0  0  0  0  0  0
    0.7305   10.2714   25.7283 C   0  0  0  0  0  0
   -0.5546   10.1402   26.3210 C   0  0  0  0  0  0
   -0.8499    9.2967   27.3832 N   0  0  0  0  0  0
   -1.5730   10.8993   25.8521 N   0  0  0  0  0  0
   -1.2889   11.7772   24.8881 C   0  0  0  0  0  0
   -0.1054   12.0384   24.3159 N   0  0  0  0  0  0
    0.8884   11.2262   24.7479 C   0  0  0  0  0  0
    1.7404   15.6495   24.6061 H   0  0  0  0  0  0
    2.1462   14.8491   23.1479 H   0  0  0  0  0  0
    1.1543   14.0730   24.3479 H   0  0  0  0  0  0
    3.0472   13.7462   25.8464 H   0  0  0  0  0  0
    4.0170   14.8932   24.9851 H   0  0  0  0  0  0
    4.6672   12.4627   24.6480 H   0  0  0  0  0  0
    4.5075   13.4200   23.2243 H   0  0  0  0  0  0
    3.4861   11.2282   22.7479 H   0  0  0  0  0  0
    2.2472   12.4381   22.7479 H   0  0  0  0  0  0
    4.7482   10.2276   24.2996 H   0  0  0  0  0  0
    4.6472    9.7651   25.9479 H   0  0  0  0  0  0
    5.6929    8.5711   22.9902 H   0  0  0  0  0  0
    6.0702    6.1957   22.3947 H   0  0  0  0  0  0
    3.0472    7.3644   26.1872 H   0  0  0  0  0  0
    2.9534    3.3742   24.0448 H   0  0  0  0  0  0
    4.1468    2.7598   25.2099 H   0  0  0  0  0  0
   -0.0503    8.8495   27.8206 H   0  0  0  0  0  0
   -1.7373    9.3754   27.8528 H   0  0  0  0  0  0
   -2.1169   12.3848   24.5508 H   0  0  0  0  0  0
  1  2  1  0  0  0
  1 25  1  0  0  0
  1 26  1  0  0  0
  1 27  1  0  0  0
  2  3  1  0  0  0
  2 28  1  0  0  0
  2 29  1  0  0  0
  3  4  1  0  0  0
  3 30  1  0  0  0
  3 31  1  0  0  0
  4  5  1  0  0  0
  4 32  1  0  0  0
  4 33  1  0  0  0
  5 24  1  0  0  0
  5  6  1  0  0  0
  6  7  1  0  0  0
  6 17  2  0  0  0
  7  8  1  0  0  0
  7 34  1  0  0  0
  7 35  1  0  0  0
  8 13  1  0  0  0
  8  9  2  0  0  0
  9 10  1  0  0  0
  9 36  1  0  0  0
 10 11  2  0  0  0
 10 37  1  0  0  0
 11 16  1  0  0  0
 11 12  1  0  0  0
 12 13  2  0  0  0
 12 14  1  0  0  0
 13 38  1  0  0  0
 14 15  1  0  0  0
 15 16  1  0  0  0
 15 39  1  0  0  0
 15 40  1  0  0  0
 17 18  1  0  0  0
 18 24  2  0  0  0
 18 19  1  0  0  0
 19 20  1  0  0  0
 19 21  2  0  0  0
 20 41  1  0  0  0
 20 42  1  0  0  0
 21 22  1  0  0  0
 22 23  2  0  0  0
 22 43  1  0  0  0
 23 24  1  0  0  0
M  END
> <s_m_entry_id>
25

> <s_m_entry_name>
out_pv.2

> <s_m_Source_Path>
/home//03_prep_map

> <s_m_Source_File>
out_pv.maegz

> <i_m_Source_File_Index>
2

> <s_m_source_file>
/tmp/tmpyr555pyi/0icjb2kpi.smi

> <i_m_source_file_index>
5

> <i_lp_mmshare_version>
52144

> <i_f3d_flags>
0

> <s_epik_input>
W05IMl1jMW5bY0hdbmMoYzEyKW4oW0NIMl1bQ0gyXVtDSDJdW0NIM10pYyhuMilbQ0gyXWMoW2NIXVtjSF0zKVtjSF1jKGMzNClPW0NIMl1PNA==

> <s_epik_cmdline>
J2VwaWtfcHl0aG9uJywgJy1waHQnLCAnMS4wJywgJy1waCcsICc3LjAnLCAnLXRuJywgJzgnLCAnLW1hJywgJzIwMCcsICctaW1hZScsICc8aW5maWxlLm1hZT4nLCAnLW9tYWUnLCAnPG91dGZpbGUubWFlPic=

> <r_lp_tautomer_probability>
1

> <r_epik_Ionization_Penalty>
0.00146126

> <r_epik_Ionization_Penalty_Charging>
0

> <r_epik_Ionization_Penalty_Neutral>
0.00146126

> <r_epik_State_Penalty>
0

> <r_epik_Charging_Adjusted_Penalty>
0

> <i_epik_Tot_Q>
0

> <i_epik_Tot_abs_Q>
0

> <s_epik_Chemistry_Notes>
This compound contains an acetal/aminal-like group ( X-CH(R)-Y where X, Y are N, S, or O) that may be acid/base labile, releasing an aldehyde.

> <s_lp_Force_Field>
OPLS_2005

> <r_lp_Energy>
24.5474

> <b_lp_Chiralities_Consistent>
1

> <s_lp_Variant>
4:29-1

> <s_i_glide_gridfile>
glide-grid_1

> <i_i_glide_lignum>
1

> <i_i_glide_rotatable_bonds>
5

> <r_i_docking_score>
-6.43233529331813

> <r_i_glide_ligand_efficiency>
-0.268013970554922

> <r_i_glide_ligand_efficiency_sa>
-0.773086066919468

> <r_i_glide_ligand_efficiency_ln>
-1.53955299632472

> <r_i_glide_gscore>
-6.43233529331813

> <r_i_glide_lipo>
-1.96723508718489

> <r_i_glide_hbond>
-0.779656965451271

> <r_i_glide_metal>
0

> <r_i_glide_rewards>
-2.3610036638325

> <r_i_glide_evdw>
-27.2068367004395

> <r_i_glide_ecoul>
-4.40467071533203

> <r_i_glide_erotb>
0.708097968863318

> <r_i_glide_esite>
-0.0114951033910184

> <r_i_glide_emodel>
-43.192276055261

> <r_i_glide_energy>
-31.6115074157715

> <r_i_glide_einternal>
5.71647500991821

> <r_i_glide_intrahb_reward>
0

> <r_i_glide_emodel_strain>
0.0978431701660156

> <r_i_glide_gscore_strain>
0

> <i_i_glide_confnum>
11

> <i_i_glide_posenum>
278

> <r_i_glide_eff_state_penalty>
0

> <s_m_job_name>
glide-dock_SP_2

> <s_m_subgroup_title>
glide-dock_SP_2_pv1

> <s_m_subgroupid>
glide-dock_SP_2_pv1

> <b_m_subgroup_collapsed>
0

$$$$
4:16
                    3D
 Schrodinger Suite 2020-4.
 43 46  0  0  1  0            999 V2000
    7.7708   15.4161   24.3410 C   0  0  0  0  0  0
    7.7106   14.4847   25.5539 C   0  0  0  0  0  0
    6.5289   13.5011   25.5503 C   0  0  0  0  0  0
    6.3790   12.6308   24.2763 C   0  0  0  0  0  0
    5.1242   11.8435   24.2839 N   0  0  0  0  0  0
    4.9666   10.4959   24.1829 C   0  0  0  0  0  0
    6.1117    9.5266   24.0214 C   0  0  0  0  0  0
    5.8524    8.0129   24.1348 C   0  0  0  0  0  0
    6.7989    7.1498   23.5480 C   0  0  0  0  0  0
    6.6470    5.7574   23.5817 C   0  0  0  0  0  0
    5.5350    5.2504   24.2397 C   0  0  0  0  0  0
    4.6277    6.0681   24.8481 C   0  0  0  0  0  0
    4.7600    7.4514   24.8306 C   0  0  0  0  0  0
    3.6781    5.3104   25.4572 O   0  0  0  0  0  0
    3.8820    4.0106   24.9733 C   0  0  0  0  0  0
    5.1789    3.9547   24.4417 O   0  0  0  0  0  0
    3.7011   10.1467   24.1789 N   0  0  0  0  0  0
    3.0147   11.2916   24.2830 C   0  0  0  0  0  0
    1.6280   11.5550   24.3442 C   0  0  0  0  0  0
    0.6549   10.5619   24.3507 N   0  0  0  0  0  0
    1.2150   12.8496   24.3479 N   0  0  0  0  0  0
    2.1556   13.8059   24.3479 C   0  0  0  0  0  0
    3.4878   13.6802   24.3479 N   0  0  0  0  0  0
    3.8651   12.3785   24.3095 C   0  0  0  0  0  0
    8.6531   16.0495   24.4050 H   0  0  0  0  0  0
    7.8474   14.8675   23.4031 H   0  0  0  0  0  0
    6.8857   16.0496   24.2924 H   0  0  0  0  0  0
    7.6588   15.0940   26.4582 H   0  0  0  0  0  0
    8.6472   13.9467   25.6336 H   0  0  0  0  0  0
    5.6228   14.0783   25.7326 H   0  0  0  0  0  0
    6.6474   12.8502   26.4122 H   0  0  0  0  0  0
    7.2177   11.9461   24.1563 H   0  0  0  0  0  0
    6.3137   13.2355   23.3728 H   0  0  0  0  0  0
    6.5591    9.7199   23.0455 H   0  0  0  0  0  0
    6.8835    9.7580   24.7479 H   0  0  0  0  0  0
    7.6578    7.5616   23.0378 H   0  0  0  0  0  0
    7.3751    5.1129   23.1125 H   0  0  0  0  0  0
    4.0391    8.0531   25.3604 H   0  0  0  0  0  0
    3.1596    3.8085   24.1783 H   0  0  0  0  0  0
    3.7523    3.2761   25.7689 H   0  0  0  0  0  0
    0.9396    9.5907   24.3759 H   0  0  0  0  0  0
   -0.3134   10.8349   24.4154 H   0  0  0  0  0  0
    1.7863   14.8215   24.3499 H   0  0  0  0  0  0
  1  2  1  0  0  0
  1 25  1  0  0  0
  1 26  1  0  0  0
  1 27  1  0  0  0
  2  3  1  0  0  0
  2 28  1  0  0  0
  2 29  1  0  0  0
  3  4  1  0  0  0
  3 30  1  0  0  0
  3 31  1  0  0  0
  4  5  1  0  0  0
  4 32  1  0  0  0
  4 33  1  0  0  0
  5 24  1  0  0  0
  5  6  1  0  0  0
  6  7  1  0  0  0
  6 17  2  0  0  0
  7  8  1  0  0  0
  7 34  1  0  0  0
  7 35  1  0  0  0
  8 13  1  0  0  0
  8  9  2  0  0  0
  9 10  1  0  0  0
  9 36  1  0  0  0
 10 11  2  0  0  0
 10 37  1  0  0  0
 11 16  1  0  0  0
 11 12  1  0  0  0
 12 13  2  0  0  0
 12 14  1  0  0  0
 13 38  1  0  0  0
 14 15  1  0  0  0
 15 16  1  0  0  0
 15 39  1  0  0  0
 15 40  1  0  0  0
 17 18  1  0  0  0
 18 24  2  0  0  0
 18 19  1  0  0  0
 19 20  1  0  0  0
 19 21  2  0  0  0
 20 41  1  0  0  0
 20 42  1  0  0  0
 21 22  1  0  0  0
 22 23  2  0  0  0
 22 43  1  0  0  0
 23 24  1  0  0  0
M  END
> <s_m_entry_id>
26

> <s_m_entry_name>
out_pv.2

> <s_m_Source_Path>
/home//03_prep_map

> <s_m_Source_File>
out_pv.maegz

> <i_m_Source_File_Index>
2

> <s_m_source_file>
/tmp/tmpyr555pyi/0icjb2kpi.smi

> <i_m_source_file_index>
5

> <i_lp_mmshare_version>
52144

> <i_f3d_flags>
0

> <s_epik_input>
W05IMl1jMW5bY0hdbmMoYzEyKW4oW0NIMl1bQ0gyXVtDSDJdW0NIM10pYyhuMilbQ0gyXWMoW2NIXVtjSF0zKVtjSF1jKGMzNClPW0NIMl1PNA==

> <s_epik_cmdline>
J2VwaWtfcHl0aG9uJywgJy1waHQnLCAnMS4wJywgJy1waCcsICc3LjAnLCAnLXRuJywgJzgnLCAnLW1hJywgJzIwMCcsICctaW1hZScsICc8aW5maWxlLm1hZT4nLCAnLW9tYWUnLCAnPG91dGZpbGUubWFlPic=

> <r_lp_tautomer_probability>
1

> <r_epik_Ionization_Penalty>
0.00146126

> <r_epik_Ionization_Penalty_Charging>
0

> <r_epik_Ionization_Penalty_Neutral>
0.00146126

> <r_epik_State_Penalty>
0

> <r_epik_Charging_Adjusted_Penalty>
0

> <i_epik_Tot_Q>
0

> <i_epik_Tot_abs_Q>
0

> <s_epik_Chemistry_Notes>
This compound contains an acetal/aminal-like group ( X-CH(R)-Y where X, Y are N, S, or O) that may be acid/base labile, releasing an aldehyde.

> <s_lp_Force_Field>
OPLS_2005

> <r_lp_Energy>
24.5474

> <b_lp_Chiralities_Consistent>
1

> <s_lp_Variant>
4:16-1

> <s_i_glide_gridfile>
glide-grid_1

> <i_i_glide_lignum>
1

> <i_i_glide_rotatable_bonds>
5

> <r_i_docking_score>
-6.3204949405773

> <r_i_glide_ligand_efficiency>
-0.263353955857387

> <r_i_glide_ligand_efficiency_sa>
-0.759644258543416

> <r_i_glide_ligand_efficiency_ln>
-1.51278446789445

> <r_i_glide_gscore>
-6.3204949405773

> <r_i_glide_lipo>
-2.08475325343598

> <r_i_glide_hbond>
-0.32

> <r_i_glide_metal>
0

> <r_i_glide_rewards>
-2.54285828784201

> <r_i_glide_evdw>
-34.2236366271973

> <r_i_glide_ecoul>
-2.42995357513428

> <r_i_glide_erotb>
0.708097968863318

> <r_i_glide_esite>
-0.00530650053262259

> <r_i_glide_emodel>
-48.7318779010761

> <r_i_glide_energy>
-36.6535902023315

> <r_i_glide_einternal>
4.21932888031006

> <r_i_glide_intrahb_reward>
0

> <r_i_glide_emodel_strain>
0.0978431701660156

> <r_i_glide_gscore_strain>
0

> <i_i_glide_confnum>
15

> <i_i_glide_posenum>
186

> <r_i_glide_eff_state_penalty>
0

> <s_m_job_name>
glide-dock_SP_2

> <s_m_subgroup_title>
glide-dock_SP_2_pv1

> <s_m_subgroupid>
glide-dock_SP_2_pv1

> <b_m_subgroup_collapsed>
0

$$$$
4:17
                    3D
 Schrodinger Suite 2020-4.
 43 46  0  0  1  0            999 V2000
    7.8237   15.2463   24.3479 C   0  0  0  0  0  0
    7.4639   14.3823   25.5646 C   0  0  0  0  0  0
    6.1053   13.6729   25.4387 C   0  0  0  0  0  0
    6.0509   12.5710   24.3479 C   0  0  0  0  0  0
    4.7745   11.8111   24.3479 N   0  0  0  0  0  0
    4.6014   10.4616   24.2985 C   0  0  0  0  0  0
    5.7385    9.4754   24.2704 C   0  0  0  0  0  0
    5.4174    7.9733   24.2924 C   0  0  0  0  0  0
    4.3938    7.4300   25.1026 C   0  0  0  0  0  0
    4.1625    6.0489   25.1551 C   0  0  0  0  0  0
    4.9786    5.2311   24.3837 C   0  0  0  0  0  0
    5.9799    5.7411   23.6085 C   0  0  0  0  0  0
    6.2359    7.1059   23.5479 C   0  0  0  0  0  0
    6.6471    4.7221   23.0058 O   0  0  0  0  0  0
    5.8742    3.5772   23.2480 C   0  0  0  0  0  0
    4.9866    3.8754   24.2924 O   0  0  0  0  0  0
    3.3350   10.1193   24.2679 N   0  0  0  0  0  0
    2.6605   11.2750   24.3153 C   0  0  0  0  0  0
    1.2760   11.5510   24.3482 C   0  0  0  0  0  0
    0.2970   10.5645   24.3729 N   0  0  0  0  0  0
    0.8741   12.8495   24.3479 N   0  0  0  0  0  0
    1.8220   13.7977   24.3284 C   0  0  0  0  0  0
    3.1512   13.6605   24.3302 N   0  0  0  0  0  0
    3.5201   12.3564   24.3275 C   0  0  0  0  0  0
    8.8055   15.7025   24.4750 H   0  0  0  0  0  0
    7.8472   14.6606   23.4293 H   0  0  0  0  0  0
    7.0990   16.0495   24.2124 H   0  0  0  0  0  0
    7.4512   15.0213   26.4494 H   0  0  0  0  0  0
    8.2472   13.6495   25.7448 H   0  0  0  0  0  0
    5.3591   14.4423   25.2459 H   0  0  0  0  0  0
    5.8434   13.2495   26.4061 H   0  0  0  0  0  0
    6.8634   11.8573   24.4794 H   0  0  0  0  0  0
    6.1334   12.9893   23.3447 H   0  0  0  0  0  0
    6.3609    9.6995   23.4030 H   0  0  0  0  0  0
    6.3495    9.6495   25.1479 H   0  0  0  0  0  0
    3.7793    8.0726   25.7159 H   0  0  0  0  0  0
    3.3825    5.6457   25.7833 H   0  0  0  0  0  0
    7.0477    7.4862   22.9458 H   0  0  0  0  0  0
    6.5100    2.7314   23.5113 H   0  0  0  0  0  0
    5.3009    3.3346   22.3507 H   0  0  0  0  0  0
    0.5792    9.5918   24.3974 H   0  0  0  0  0  0
   -0.6709   10.8433   24.4192 H   0  0  0  0  0  0
    1.4616   14.8166   24.3295 H   0  0  0  0  0  0
  1  2  1  0  0  0
  1 25  1  0  0  0
  1 26  1  0  0  0
  1 27  1  0  0  0
  2  3  1  0  0  0
  2 28  1  0  0  0
  2 29  1  0  0  0
  3  4  1  0  0  0
  3 30  1  0  0  0
  3 31  1  0  0  0
  4  5  1  0  0  0
  4 32  1  0  0  0
  4 33  1  0  0  0
  5 24  1  0  0  0
  5  6  1  0  0  0
  6  7  1  0  0  0
  6 17  2  0  0  0
  7  8  1  0  0  0
  7 34  1  0  0  0
  7 35  1  0  0  0
  8 13  1  0  0  0
  8  9  2  0  0  0
  9 10  1  0  0  0
  9 36  1  0  0  0
 10 11  2  0  0  0
 10 37  1  0  0  0
 11 16  1  0  0  0
 11 12  1  0  0  0
 12 13  2  0  0  0
 12 14  1  0  0  0
 13 38  1  0  0  0
 14 15  1  0  0  0
 15 16  1  0  0  0
 15 39  1  0  0  0
 15 40  1  0  0  0
 17 18  1  0  0  0
 18 24  2  0  0  0
 18 19  1  0  0  0
 19 20  1  0  0  0
 19 21  2  0  0  0
 20 41  1  0  0  0
 20 42  1  0  0  0
 21 22  1  0  0  0
 22 23  2  0  0  0
 22 43  1  0  0  0
 23 24  1  0  0  0
M  END
> <s_m_entry_id>
27

> <s_m_entry_name>
out_pv.2

> <s_m_Source_Path>
/home//03_prep_map

> <s_m_Source_File>
out_pv.maegz

> <i_m_Source_File_Index>
2

> <s_m_source_file>
/tmp/tmpyr555pyi/0icjb2kpi.smi

> <i_m_source_file_index>
5

> <i_lp_mmshare_version>
52144

> <i_f3d_flags>
0

> <s_epik_input>
W05IMl1jMW5bY0hdbmMoYzEyKW4oW0NIMl1bQ0gyXVtDSDJdW0NIM10pYyhuMilbQ0gyXWMoW2NIXVtjSF0zKVtjSF1jKGMzNClPW0NIMl1PNA==

> <s_epik_cmdline>
J2VwaWtfcHl0aG9uJywgJy1waHQnLCAnMS4wJywgJy1waCcsICc3LjAnLCAnLXRuJywgJzgnLCAnLW1hJywgJzIwMCcsICctaW1hZScsICc8aW5maWxlLm1hZT4nLCAnLW9tYWUnLCAnPG91dGZpbGUubWFlPic=

> <r_lp_tautomer_probability>
1

> <r_epik_Ionization_Penalty>
0.00146126

> <r_epik_Ionization_Penalty_Charging>
0

> <r_epik_Ionization_Penalty_Neutral>
0.00146126

> <r_epik_State_Penalty>
0

> <r_epik_Charging_Adjusted_Penalty>
0

> <i_epik_Tot_Q>
0

> <i_epik_Tot_abs_Q>
0

> <s_epik_Chemistry_Notes>
This compound contains an acetal/aminal-like group ( X-CH(R)-Y where X, Y are N, S, or O) that may be acid/base labile, releasing an aldehyde.

> <s_lp_Force_Field>
OPLS_2005

> <r_lp_Energy>
24.5474

> <b_lp_Chiralities_Consistent>
1

> <s_lp_Variant>
4:17-1

> <s_i_glide_gridfile>
glide-grid_1

> <i_i_glide_lignum>
1

> <i_i_glide_rotatable_bonds>
5

> <r_i_docking_score>
-6.25448859235734

> <r_i_glide_ligand_efficiency>
-0.260603691348222

> <r_i_glide_ligand_efficiency_sa>
-0.75171112293867

> <r_i_glide_ligand_efficiency_ln>
-1.49698611993146

> <r_i_glide_gscore>
-6.25448859235734

> <r_i_glide_lipo>
-1.98676117481616

> <r_i_glide_hbond>
-0.357638697743821

> <r_i_glide_metal>
0

> <r_i_glide_rewards>
-2.54843621277719

> <r_i_glide_evdw>
-32.8468894958496

> <r_i_glide_ecoul>
-2.84937334060669

> <r_i_glide_erotb>
0.708097968863318

> <r_i_glide_esite>
0

> <r_i_glide_emodel>
-48.2996600617539

> <r_i_glide_energy>
-35.6962628364563

> <r_i_glide_einternal>
2.87277388572693

> <r_i_glide_intrahb_reward>
0

> <r_i_glide_emodel_strain>
0.0978431701660156

> <r_i_glide_gscore_strain>
0

> <i_i_glide_confnum>
20

> <i_i_glide_posenum>
325

> <r_i_glide_eff_state_penalty>
0

> <s_m_job_name>
glide-dock_SP_2

> <s_m_subgroup_title>
glide-dock_SP_2_pv1

> <s_m_subgroupid>
glide-dock_SP_2_pv1

> <b_m_subgroup_collapsed>
0

$$$$
4:18
                    3D
 Schrodinger Suite 2020-4.
 43 46  0  0  1  0            999 V2000
    8.2468   14.8548   25.2113 C   0  0  0  0  0  0
    7.4469   14.4895   23.9475 C   0  0  0  0  0  0
    7.4653   12.9983   23.5351 C   0  0  0  0  0  0
    7.0320   11.9997   24.6246 C   0  0  0  0  0  0
    5.7088   11.4012   24.3475 N   0  0  0  0  0  0
    5.4110   10.1015   24.0875 C   0  0  0  0  0  0
    6.4414    9.0050   23.9795 C   0  0  0  0  0  0
    5.9842    7.5442   24.1111 C   0  0  0  0  0  0
    6.8083    6.5519   23.5479 C   0  0  0  0  0  0
    6.4638    5.1967   23.5972 C   0  0  0  0  0  0
    5.2978    4.8578   24.2683 C   0  0  0  0  0  0
    4.5102    5.8012   24.8633 C   0  0  0  0  0  0
    4.8260    7.1539   24.8172 C   0  0  0  0  0  0
    3.4718    5.1878   25.4903 O   0  0  0  0  0  0
    3.5040    3.8608   25.0386 C   0  0  0  0  0  0
    4.7764    3.6259   24.5002 O   0  0  0  0  0  0
    4.1246    9.9195   23.8985 N   0  0  0  0  0  0
    3.5634   11.1197   24.1076 C   0  0  0  0  0  0
    2.2156   11.5376   24.1262 C   0  0  0  0  0  0
    1.1467   10.6682   23.9536 N   0  0  0  0  0  0
    1.9402   12.8508   24.3392 N   0  0  0  0  0  0
    2.9757   13.6759   24.5427 C   0  0  0  0  0  0
    4.2844   13.3930   24.5941 N   0  0  0  0  0  0
    4.5210   12.0789   24.3601 C   0  0  0  0  0  0
    8.2480   15.9352   25.3587 H   0  0  0  0  0  0
    7.8187   14.4193   26.1142 H   0  0  0  0  0  0
    9.2874   14.5403   25.1481 H   0  0  0  0  0  0
    7.8472   15.0783   23.1240 H   0  0  0  0  0  0
    6.4202   14.8279   24.0730 H   0  0  0  0  0  0
    8.4607   12.7377   23.1778 H   0  0  0  0  0  0
    6.8387   12.8487   22.6575 H   0  0  0  0  0  0
    6.9434   12.4493   25.6119 H   0  0  0  0  0  0
    7.7603   11.1976   24.6978 H   0  0  0  0  0  0
    6.9623    9.1324   23.0301 H   0  0  0  0  0  0
    7.2000    9.1282   24.7479 H   0  0  0  0  0  0
    7.7200    6.8352   23.0420 H   0  0  0  0  0  0
    7.0983    4.4488   23.1458 H   0  0  0  0  0  0
    4.1951    7.8690   25.3215 H   0  0  0  0  0  0
    2.7586    3.7318   24.2497 H   0  0  0  0  0  0
    3.2950    3.1704   25.8560 H   0  0  0  0  0  0
    1.3382    9.6753   23.9097 H   0  0  0  0  0  0
    0.2112   11.0159   24.1023 H   0  0  0  0  0  0
    2.7181   14.7109   24.7115 H   0  0  0  0  0  0
  1  2  1  0  0  0
  1 25  1  0  0  0
  1 26  1  0  0  0
  1 27  1  0  0  0
  2  3  1  0  0  0
  2 28  1  0  0  0
  2 29  1  0  0  0
  3  4  1  0  0  0
  3 30  1  0  0  0
  3 31  1  0  0  0
  4  5  1  0  0  0
  4 32  1  0  0  0
  4 33  1  0  0  0
  5 24  1  0  0  0
  5  6  1  0  0  0
  6  7  1  0  0  0
  6 17  2  0  0  0
  7  8  1  0  0  0
  7 34  1  0  0  0
  7 35  1  0  0  0
  8 13  1  0  0  0
  8  9  2  0  0  0
  9 10  1  0  0  0
  9 36  1  0  0  0
 10 11  2  0  0  0
 10 37  1  0  0  0
 11 16  1  0  0  0
 11 12  1  0  0  0
 12 13  2  0  0  0
 12 14  1  0  0  0
 13 38  1  0  0  0
 14 15  1  0  0  0
 15 16  1  0  0  0
 15 39  1  0  0  0
 15 40  1  0  0  0
 17 18  1  0  0  0
 18 24  2  0  0  0
 18 19  1  0  0  0
 19 20  1  0  0  0
 19 21  2  0  0  0
 20 41  1  0  0  0
 20 42  1  0  0  0
 21 22  1  0  0  0
 22 23  2  0  0  0
 22 43  1  0  0  0
 23 24  1  0  0  0
M  END
> <s_m_entry_id>
28

> <s_m_entry_name>
out_pv.2

> <s_m_Source_Path>
/home//03_prep_map

> <s_m_Source_File>
out_pv.maegz

> <i_m_Source_File_Index>
2

> <s_m_source_file>
/tmp/tmpyr555pyi/0icjb2kpi.smi

> <i_m_source_file_index>
5

> <i_lp_mmshare_version>
52144

> <i_f3d_flags>
0

> <s_epik_input>
W05IMl1jMW5bY0hdbmMoYzEyKW4oW0NIMl1bQ0gyXVtDSDJdW0NIM10pYyhuMilbQ0gyXWMoW2NIXVtjSF0zKVtjSF1jKGMzNClPW0NIMl1PNA==

> <s_epik_cmdline>
J2VwaWtfcHl0aG9uJywgJy1waHQnLCAnMS4wJywgJy1waCcsICc3LjAnLCAnLXRuJywgJzgnLCAnLW1hJywgJzIwMCcsICctaW1hZScsICc8aW5maWxlLm1hZT4nLCAnLW9tYWUnLCAnPG91dGZpbGUubWFlPic=

> <r_lp_tautomer_probability>
1

> <r_epik_Ionization_Penalty>
0.00146126

> <r_epik_Ionization_Penalty_Charging>
0

> <r_epik_Ionization_Penalty_Neutral>
0.00146126

> <r_epik_State_Penalty>
0

> <r_epik_Charging_Adjusted_Penalty>
0

> <i_epik_Tot_Q>
0

> <i_epik_Tot_abs_Q>
0

> <s_epik_Chemistry_Notes>
This compound contains an acetal/aminal-like group ( X-CH(R)-Y where X, Y are N, S, or O) that may be acid/base labile, releasing an aldehyde.

> <s_lp_Force_Field>
OPLS_2005

> <r_lp_Energy>
24.5474

> <b_lp_Chiralities_Consistent>
1

> <s_lp_Variant>
4:18-1

> <s_i_glide_gridfile>
glide-grid_1

> <i_i_glide_lignum>
1

> <i_i_glide_rotatable_bonds>
5

> <r_i_docking_score>
-6.09069548683778

> <r_i_glide_ligand_efficiency>
-0.253778978618241

> <r_i_glide_ligand_efficiency_sa>
-0.73202524495495

> <r_i_glide_ligand_efficiency_ln>
-1.45778291380476

> <r_i_glide_gscore>
-6.09069548683778

> <r_i_glide_lipo>
-2.09021121085607

> <r_i_glide_hbond>
-0.229257629627855

> <r_i_glide_metal>
0

> <r_i_glide_rewards>
-2.66184564008212

> <r_i_glide_evdw>
-34.922061920166

> <r_i_glide_ecoul>
-0.38639560341835

> <r_i_glide_erotb>
0.708097968863318

> <r_i_glide_esite>
-0.0134165386140081

> <r_i_glide_emodel>
-44.9022379613206

> <r_i_glide_energy>
-35.3084575235844

> <r_i_glide_einternal>
8.15665721893311

> <r_i_glide_intrahb_reward>
0

> <r_i_glide_emodel_strain>
0.0978431701660156

> <r_i_glide_gscore_strain>
0

> <i_i_glide_confnum>
5

> <i_i_glide_posenum>
17

> <r_i_glide_eff_state_penalty>
0

> <s_m_job_name>
glide-dock_SP_2

> <s_m_subgroup_title>
glide-dock_SP_2_pv1

> <s_m_subgroupid>
glide-dock_SP_2_pv1

> <b_m_subgroup_collapsed>
0

$$$$
4:19
                    3D
 Schrodinger Suite 2020-4.
 43 46  0  0  1  0            999 V2000
    8.6142   10.2725   22.6401 C   0  0  0  0  0  0
    7.4472   11.1256   22.1259 C   0  0  0  0  0  0
    7.0084   12.2560   23.0770 C   0  0  0  0  0  0
    6.4222   11.8536   24.4392 C   0  0  0  0  0  0
    5.1190   11.1495   24.3478 N   0  0  0  0  0  0
    4.8644    9.8122   24.3342 C   0  0  0  0  0  0
    5.9493    8.7686   24.3243 C   0  0  0  0  0  0
    5.5954    7.2778   24.3313 C   0  0  0  0  0  0
    6.4713    6.4026   23.6544 C   0  0  0  0  0  0
    6.2468    5.0223   23.6202 C   0  0  0  0  0  0
    5.1295    4.5433   24.2879 C   0  0  0  0  0  0
    4.2822    5.3748   24.9645 C   0  0  0  0  0  0
    4.4899    6.7496   25.0261 C   0  0  0  0  0  0
    3.3062    4.6329   25.5478 O   0  0  0  0  0  0
    3.4413    3.3471   25.0028 C   0  0  0  0  0  0
    4.7180    3.2577   24.4350 O   0  0  0  0  0  0
    3.5777    9.5512   24.2927 N   0  0  0  0  0  0
    2.9762   10.7514   24.3212 C   0  0  0  0  0  0
    1.6128   11.1256   24.3458 C   0  0  0  0  0  0
    0.5645   10.2136   24.3573 N   0  0  0  0  0  0
    1.2994   12.4490   24.3480 N   0  0  0  0  0  0
    2.3096   13.3297   24.3478 C   0  0  0  0  0  0
    3.6298   13.1020   24.3480 N   0  0  0  0  0  0
    3.9045   11.7741   24.3335 C   0  0  0  0  0  0
    8.8188    9.4540   21.9482 H   0  0  0  0  0  0
    9.5250   10.8496   22.7482 H   0  0  0  0  0  0
    8.4244    9.8436   23.6218 H   0  0  0  0  0  0
    6.5942   10.4901   21.8899 H   0  0  0  0  0  0
    7.7473   11.5645   21.1738 H   0  0  0  0  0  0
    6.2471   12.8494   22.5901 H   0  0  0  0  0  0
    7.8507   12.9300   23.2387 H   0  0  0  0  0  0
    6.2336   12.7422   25.0450 H   0  0  0  0  0  0
    7.1048   11.2494   25.0119 H   0  0  0  0  0  0
    6.5020    8.9193   23.4064 H   0  0  0  0  0  0
    6.6372    8.9450   25.1478 H   0  0  0  0  0  0
    7.3415    6.7944   23.1479 H   0  0  0  0  0  0
    6.9259    4.3643   23.0992 H   0  0  0  0  0  0
    3.8210    7.3804   25.5923 H   0  0  0  0  0  0
    2.6972    3.2086   24.2152 H   0  0  0  0  0  0
    3.3014    2.5840   25.7689 H   0  0  0  0  0  0
    0.7609    9.2170   24.3494 H   0  0  0  0  0  0
   -0.3782   10.5687   24.3967 H   0  0  0  0  0  0
    2.0200   14.3709   24.3471 H   0  0  0  0  0  0
  1  2  1  0  0  0
  1 25  1  0  0  0
  1 26  1  0  0  0
  1 27  1  0  0  0
  2  3  1  0  0  0
  2 28  1  0  0  0
  2 29  1  0  0  0
  3  4  1  0  0  0
  3 30  1  0  0  0
  3 31  1  0  0  0
  4  5  1  0  0  0
  4 32  1  0  0  0
  4 33  1  0  0  0
  5 24  1  0  0  0
  5  6  1  0  0  0
  6  7  1  0  0  0
  6 17  2  0  0  0
  7  8  1  0  0  0
  7 34  1  0  0  0
  7 35  1  0  0  0
  8 13  1  0  0  0
  8  9  2  0  0  0
  9 10  1  0  0  0
  9 36  1  0  0  0
 10 11  2  0  0  0
 10 37  1  0  0  0
 11 16  1  0  0  0
 11 12  1  0  0  0
 12 13  2  0  0  0
 12 14  1  0  0  0
 13 38  1  0  0  0
 14 15  1  0  0  0
 15 16  1  0  0  0
 15 39  1  0  0  0
 15 40  1  0  0  0
 17 18  1  0  0  0
 18 24  2  0  0  0
 18 19  1  0  0  0
 19 20  1  0  0  0
 19 21  2  0  0  0
 20 41  1  0  0  0
 20 42  1  0  0  0
 21 22  1  0  0  0
 22 23  2  0  0  0
 22 43  1  0  0  0
 23 24  1  0  0  0
M  END
> <s_m_entry_id>
29

> <s_m_entry_name>
out_pv.2

> <s_m_Source_Path>
/home//03_prep_map

> <s_m_Source_File>
out_pv.maegz

> <i_m_Source_File_Index>
2

> <s_m_source_file>
/tmp/tmpyr555pyi/0icjb2kpi.smi

> <i_m_source_file_index>
5

> <i_lp_mmshare_version>
52144

> <i_f3d_flags>
0

> <s_epik_input>
W05IMl1jMW5bY0hdbmMoYzEyKW4oW0NIMl1bQ0gyXVtDSDJdW0NIM10pYyhuMilbQ0gyXWMoW2NIXVtjSF0zKVtjSF1jKGMzNClPW0NIMl1PNA==

> <s_epik_cmdline>
J2VwaWtfcHl0aG9uJywgJy1waHQnLCAnMS4wJywgJy1waCcsICc3LjAnLCAnLXRuJywgJzgnLCAnLW1hJywgJzIwMCcsICctaW1hZScsICc8aW5maWxlLm1hZT4nLCAnLW9tYWUnLCAnPG91dGZpbGUubWFlPic=

> <r_lp_tautomer_probability>
1

> <r_epik_Ionization_Penalty>
0.00146126

> <r_epik_Ionization_Penalty_Charging>
0

> <r_epik_Ionization_Penalty_Neutral>
0.00146126

> <r_epik_State_Penalty>
0

> <r_epik_Charging_Adjusted_Penalty>
0

> <i_epik_Tot_Q>
0

> <i_epik_Tot_abs_Q>
0

> <s_epik_Chemistry_Notes>
This compound contains an acetal/aminal-like group ( X-CH(R)-Y where X, Y are N, S, or O) that may be acid/base labile, releasing an aldehyde.

> <s_lp_Force_Field>
OPLS_2005

> <r_lp_Energy>
24.5474

> <b_lp_Chiralities_Consistent>
1

> <s_lp_Variant>
4:19-1

> <s_i_glide_gridfile>
glide-grid_1

> <i_i_glide_lignum>
1

> <i_i_glide_rotatable_bonds>
5

> <r_i_docking_score>
-6.0124087013853

> <r_i_glide_ligand_efficiency>
-0.250517029224387

> <r_i_glide_ligand_efficiency_sa>
-0.722616154741618

> <r_i_glide_ligand_efficiency_ln>
-1.43904529369948

> <r_i_glide_gscore>
-6.0124087013853

> <r_i_glide_lipo>
-1.92895833463176

> <r_i_glide_hbond>
-0.557718275676788

> <r_i_glide_metal>
0

> <r_i_glide_rewards>
-2.30107906726961

> <r_i_glide_evdw>
-31.1682243347168

> <r_i_glide_ecoul>
-2.41889643669128

> <r_i_glide_erotb>
0.708097968863318

> <r_i_glide_esite>
-0.0115053104309228

> <r_i_glide_emodel>
-46.7538107398268

> <r_i_glide_energy>
-33.5871207714081

> <r_i_glide_einternal>
0.659369111061096

> <r_i_glide_intrahb_reward>
0

> <r_i_glide_emodel_strain>
0.0978431701660156

> <r_i_glide_gscore_strain>
0

> <i_i_glide_confnum>
3

> <i_i_glide_posenum>
316

> <r_i_glide_eff_state_penalty>
0

> <s_m_job_name>
glide-dock_SP_2

> <s_m_subgroup_title>
glide-dock_SP_2_pv1

> <s_m_subgroupid>
glide-dock_SP_2_pv1

> <b_m_subgroup_collapsed>
0

$$$$
4:20
                    3D
 Schrodinger Suite 2020-4.
 43 46  0  0  1  0            999 V2000
    1.7896   14.3679   23.8855 C   0  0  0  0  0  0
    2.8649   13.3057   24.1568 C   0  0  0  0  0  0
    2.3220   11.9071   24.5211 C   0  0  0  0  0  0
    3.3155   11.0356   25.3255 C   0  0  0  0  0  0
    4.3909   10.4074   24.5288 N   0  0  0  0  0  0
    4.5435    9.0908   24.2257 C   0  0  0  0  0  0
    3.5828    7.9874   24.5998 C   0  0  0  0  0  0
    4.2132    6.5913   24.6293 C   0  0  0  0  0  0
    4.3786    5.9223   25.8594 C   0  0  0  0  0  0
    4.9970    4.6655   25.9195 C   0  0  0  0  0  0
    5.4488    4.1130   24.7262 C   0  0  0  0  0  0
    5.2780    4.7466   23.5282 C   0  0  0  0  0  0
    4.6470    5.9814   23.4375 C   0  0  0  0  0  0
    5.7901    3.9754   22.5327 O   0  0  0  0  0  0
    6.4920    2.9483   23.1803 C   0  0  0  0  0  0
    6.0716    2.9230   24.5194 O   0  0  0  0  0  0
    5.6472    8.8674   23.5474 N   0  0  0  0  0  0
    6.2368   10.0633   23.4206 C   0  0  0  0  0  0
    7.4276   10.4624   22.7730 C   0  0  0  0  0  0
    8.2434    9.6033   22.0514 N   0  0  0  0  0  0
    7.8031   11.7606   22.8467 N   0  0  0  0  0  0
    7.0305   12.5977   23.5480 C   0  0  0  0  0  0
    5.8763   12.3469   24.1824 N   0  0  0  0  0  0
    5.5105   11.0453   24.0632 C   0  0  0  0  0  0
    2.2459   15.2935   23.5479 H   0  0  0  0  0  0
    1.0726   14.0497   23.1479 H   0  0  0  0  0  0
    1.1945   14.6223   24.7479 H   0  0  0  0  0  0
    3.4988   13.6821   24.9611 H   0  0  0  0  0  0
    3.5072   13.2205   23.2805 H   0  0  0  0  0  0
    1.9810   11.3792   23.6292 H   0  0  0  0  0  0
    1.4371   12.0411   25.1454 H   0  0  0  0  0  0
    2.8002   10.2556   25.8828 H   0  0  0  0  0  0
    3.8472   11.6449   26.0511 H   0  0  0  0  0  0
    3.1597    8.1782   25.5848 H   0  0  0  0  0  0
    2.7412    7.9927   23.9059 H   0  0  0  0  0  0
    4.0366    6.3822   26.7757 H   0  0  0  0  0  0
    5.1213    4.1579   26.8642 H   0  0  0  0  0  0
    4.5146    6.4736   22.4862 H   0  0  0  0  0  0
    7.5614    3.1650   23.1414 H   0  0  0  0  0  0
    6.2988    1.9891   22.7000 H   0  0  0  0  0  0
    7.9643    8.6358   21.9391 H   0  0  0  0  0  0
    9.0709    9.9780   21.6158 H   0  0  0  0  0  0
    7.3757   13.6207   23.5922 H   0  0  0  0  0  0
  1  2  1  0  0  0
  1 25  1  0  0  0
  1 26  1  0  0  0
  1 27  1  0  0  0
  2  3  1  0  0  0
  2 28  1  0  0  0
  2 29  1  0  0  0
  3  4  1  0  0  0
  3 30  1  0  0  0
  3 31  1  0  0  0
  4  5  1  0  0  0
  4 32  1  0  0  0
  4 33  1  0  0  0
  5 24  1  0  0  0
  5  6  1  0  0  0
  6  7  1  0  0  0
  6 17  2  0  0  0
  7  8  1  0  0  0
  7 34  1  0  0  0
  7 35  1  0  0  0
  8 13  1  0  0  0
  8  9  2  0  0  0
  9 10  1  0  0  0
  9 36  1  0  0  0
 10 11  2  0  0  0
 10 37  1  0  0  0
 11 16  1  0  0  0
 11 12  1  0  0  0
 12 13  2  0  0  0
 12 14  1  0  0  0
 13 38  1  0  0  0
 14 15  1  0  0  0
 15 16  1  0  0  0
 15 39  1  0  0  0
 15 40  1  0  0  0
 17 18  1  0  0  0
 18 24  2  0  0  0
 18 19  1  0  0  0
 19 20  1  0  0  0
 19 21  2  0  0  0
 20 41  1  0  0  0
 20 42  1  0  0  0
 21 22  1  0  0  0
 22 23  2  0  0  0
 22 43  1  0  0  0
 23 24  1  0  0  0
M  END
> <s_m_entry_id>
30

> <s_m_entry_name>
out_pv.2

> <s_m_Source_Path>
/home//03_prep_map

> <s_m_Source_File>
out_pv.maegz

> <i_m_Source_File_Index>
2

> <s_m_source_file>
/tmp/tmpyr555pyi/0icjb2kpi.smi

> <i_m_source_file_index>
5

> <i_lp_mmshare_version>
52144

> <i_f3d_flags>
0

> <s_epik_input>
W05IMl1jMW5bY0hdbmMoYzEyKW4oW0NIMl1bQ0gyXVtDSDJdW0NIM10pYyhuMilbQ0gyXWMoW2NIXVtjSF0zKVtjSF1jKGMzNClPW0NIMl1PNA==

> <s_epik_cmdline>
J2VwaWtfcHl0aG9uJywgJy1waHQnLCAnMS4wJywgJy1waCcsICc3LjAnLCAnLXRuJywgJzgnLCAnLW1hJywgJzIwMCcsICctaW1hZScsICc8aW5maWxlLm1hZT4nLCAnLW9tYWUnLCAnPG91dGZpbGUubWFlPic=

> <r_lp_tautomer_probability>
1

> <r_epik_Ionization_Penalty>
0.00146126

> <r_epik_Ionization_Penalty_Charging>
0

> <r_epik_Ionization_Penalty_Neutral>
0.00146126

> <r_epik_State_Penalty>
0

> <r_epik_Charging_Adjusted_Penalty>
0

> <i_epik_Tot_Q>
0

> <i_epik_Tot_abs_Q>
0

> <s_epik_Chemistry_Notes>
This compound contains an acetal/aminal-like group ( X-CH(R)-Y where X, Y are N, S, or O) that may be acid/base labile, releasing an aldehyde.

> <s_lp_Force_Field>
OPLS_2005

> <r_lp_Energy>
24.5474

> <b_lp_Chiralities_Consistent>
1

> <s_lp_Variant>
4:20-1

> <s_i_glide_gridfile>
glide-grid_1

> <i_i_glide_lignum>
1

> <i_i_glide_rotatable_bonds>
5

> <r_i_docking_score>
-5.80874210496094

> <r_i_glide_ligand_efficiency>
-0.242030921040039

> <r_i_glide_ligand_efficiency_sa>
-0.698137983002632

> <r_i_glide_ligand_efficiency_ln>
-1.39029853152399

> <r_i_glide_gscore>
-5.80874210496094

> <r_i_glide_lipo>
-1.71791443013183

> <r_i_glide_hbond>
-0.204415158651376

> <r_i_glide_metal>
0

> <r_i_glide_rewards>
-2.68666789661637

> <r_i_glide_evdw>
-32.8876342773438

> <r_i_glide_ecoul>
-1.7564058303833

> <r_i_glide_erotb>
0.708097968863318

> <r_i_glide_esite>
0

> <r_i_glide_emodel>
-46.6517438673025

> <r_i_glide_energy>
-34.6440401077271

> <r_i_glide_einternal>
2.06297898292542

> <r_i_glide_intrahb_reward>
0

> <r_i_glide_emodel_strain>
0.0978431701660156

> <r_i_glide_gscore_strain>
0

> <i_i_glide_confnum>
4

> <i_i_glide_posenum>
264

> <r_i_glide_eff_state_penalty>
0

> <s_m_job_name>
glide-dock_SP_2

> <s_m_subgroup_title>
glide-dock_SP_2_pv1

> <s_m_subgroupid>
glide-dock_SP_2_pv1

> <b_m_subgroup_collapsed>
0

$$$$
