@<TRIPOS>MOLECULE 
 /tmp/tmpqynjrdy_/neg_image
 73 
 SMALL 
 USER_CHARGES 
 
@<TRIPOS>ATOM 
      1 C2               2.6100    8.8310   27.0980 C.3        1       TAS1   0.0000
      2 C3               6.5360   10.7940   23.1720 C.3        1       TAS1   0.0000
      3 C4               3.5910    9.8120   26.1170 C.3        1       TAS1   0.0000
      4 C5               0.6470   10.7940   23.1720 C.3        1       TAS1   0.0000
      5 C6               4.5730   14.7200   25.1350 C.3        1       TAS1   0.0000
      6 C7               8.4990   10.7940   23.1720 C.3        1       TAS1   0.0000
      7 C8              -0.3350   11.7750   24.1540 C.3        1       TAS1   0.0000
      8 C9               2.6100    8.8310   25.1350 C.3        1       TAS1   0.0000
      9 C10              5.5540    7.8490   22.1910 C.3        1       TAS1   0.0000
     10 C11              7.5170    9.8120   24.1540 C.3        1       TAS1   0.0000
     11 C12              6.5360   12.7570   25.1350 C.3        1       TAS1   0.0000
     12 C13              6.5360   12.7570   23.1720 C.3        1       TAS1   0.0000
     13 C14              7.5170   13.7380   24.1540 C.3        1       TAS1   0.0000
     14 C15              0.6470   10.7940   25.1350 C.3        1       TAS1   0.0000
     15 C16              1.6280    9.8120   26.1170 C.3        1       TAS1   0.0000
     16 C17              5.5540   13.7380   26.1170 C.3        1       TAS1   0.0000
     17 C18              6.5360   10.7940   25.1350 C.3        1       TAS1   0.0000
     18 C19              8.4990   14.7200   25.1350 C.3        1       TAS1   0.0000
     19 C21              7.5170   13.7380   26.1170 C.3        1       TAS1   0.0000
     20 C22              3.5910    7.8490   22.1910 C.3        1       TAS1   0.0000
     21 C23              3.5910    7.8490   26.1170 C.3        1       TAS1   0.0000
     22 C25              2.6100   14.7200   25.1350 C.3        1       TAS1   0.0000
     23 C26              2.6100    6.8680   23.1720 C.3        1       TAS1   0.0000
     24 C27              2.6100   10.7940   25.1350 C.3        1       TAS1   0.0000
     25 C28              7.5170    9.8120   22.1910 C.3        1       TAS1   0.0000
     26 C29              2.6100   10.7940   23.1720 C.3        1       TAS1   0.0000
     27 C30              7.5170   11.7750   24.1540 C.3        1       TAS1   0.0000
     28 C31              7.5170   11.7750   22.1910 C.3        1       TAS1   0.0000
     29 C32             -1.3160   10.7940   23.1720 C.3        1       TAS1   0.0000
     30 C33              4.5730   14.7200   27.0980 C.3        1       TAS1   0.0000
     31 C35              5.5540   15.7010   26.1170 C.3        1       TAS1   0.0000
     32 C36              4.5730   10.7940   23.1720 C.3        1       TAS1   0.0000
     33 C37              4.5730    8.8310   25.1350 C.3        1       TAS1   0.0000
     34 C38              7.5170   15.7010   24.1540 C.3        1       TAS1   0.0000
     35 C39              6.5360   14.7200   25.1350 C.3        1       TAS1   0.0000
     36 C40              4.5730    8.8310   23.1720 C.3        1       TAS1   0.0000
     37 C41              3.5910    9.8120   22.1910 C.3        1       TAS1   0.0000
     38 C42              7.5170   15.7010   26.1170 C.3        1       TAS1   0.0000
     39 C43              9.4800   15.7010   24.1540 C.3        1       TAS1   0.0000
     40 C44             -2.2980    9.8120   28.0800 C.3        1       TAS1   0.0000
     41 C45              4.5730   16.6830   27.0980 C.3        1       TAS1   0.0000
     42 C46              2.6100   12.7570   25.1350 C.3        1       TAS1   0.0000
     43 C47              5.5540    9.8120   24.1540 C.3        1       TAS1   0.0000
     44 C48              2.6100   12.7570   23.1720 C.3        1       TAS1   0.0000
     45 C49             -2.2980    9.8120   24.1540 C.3        1       TAS1   0.0000
     46 C50              4.5730    6.8680   25.1350 C.3        1       TAS1   0.0000
     47 C51              1.6280   13.7380   24.1540 C.3        1       TAS1   0.0000
     48 C53              4.5730   10.7940   25.1350 C.3        1       TAS1   0.0000
     49 C54             -0.3350    9.8120   26.1170 C.3        1       TAS1   0.0000
     50 C55              4.5730   16.6830   25.1350 C.3        1       TAS1   0.0000
     51 C57             -1.3160   12.7570   23.1720 C.3        1       TAS1   0.0000
     52 C59             -1.3160   10.7940   25.1350 C.3        1       TAS1   0.0000
     53 C60              5.5540   13.7380   24.1540 C.3        1       TAS1   0.0000
     54 C61              3.5910   11.7750   24.1540 C.3        1       TAS1   0.0000
     55 C63             -1.3160   10.7940   27.0980 C.3        1       TAS1   0.0000
     56 C64              3.5910   15.7010   26.1170 C.3        1       TAS1   0.0000
     57 C65              1.6280    9.8120   24.1540 C.3        1       TAS1   0.0000
     58 C68             -0.3350    9.8120   28.0800 C.3        1       TAS1   0.0000
     59 C69              4.5730    6.8680   23.1720 C.3        1       TAS1   0.0000
     60 C70             -1.3160    8.8310   27.0980 C.3        1       TAS1   0.0000
     61 C71              5.5540   11.7750   24.1540 C.3        1       TAS1   0.0000
     62 C72              4.5730   12.7570   25.1350 C.3        1       TAS1   0.0000
     63 C73              1.6280   11.7750   24.1540 C.3        1       TAS1   0.0000
     64 C74             -2.2980   11.7750   24.1540 C.3        1       TAS1   0.0000
     65 C75             -0.3350    9.8120   24.1540 C.3        1       TAS1   0.0000
     66 C77              8.4990    8.8310   23.1720 C.3        1       TAS1   0.0000
     67 C78              3.5910   13.7380   24.1540 C.3        1       TAS1   0.0000
     68 C79             -3.2790   10.7940   25.1350 C.3        1       TAS1   0.0000
     69 C80              5.5540    7.8490   24.1540 C.3        1       TAS1   0.0000
     70 N1              -3.7870   12.1040   25.2020 N.3        1       TAS1   0.7304
     71 O1              -2.7600   11.4350   22.4850 O.3        1       TAS1  -0.4463
     72 O2               8.4040   13.2490   24.3220 O.3        1       TAS1  -0.3297
     73 N2              10.8070   15.5520   23.3210 N.3        1       TAS1   0.4212

