Aspirin|aspirin|sdf|1|dock2
  -GOLD-   1 72215363D 1   1.00000     0.00000

 21 21  0  0  0  0  0  0  0  0  1 V2000
    4.2482   15.8734   25.5048 C   0  0  0  0  0  0  0  0  0  0  0  0
    3.9487   14.9184   24.5335 C   0  0  0  0  0  0  0  0  0  0  0  0
    5.2896   15.6495   26.4054 C   0  0  0  0  0  0  0  0  0  0  0  0
    4.6904   13.7392   24.4626 C   0  0  0  0  0  0  0  0  0  0  0  0
    6.0313   14.4703   26.3347 C   0  0  0  0  0  0  0  0  0  0  0  0
    5.7317   13.5151   25.3632 C   0  0  0  0  0  0  0  0  0  0  0  0
    7.1142   14.2563   27.2845 C   0  0  0  0  0  0  0  0  0  0  0  0
    7.2845   12.2854   24.1530 C   0  0  0  0  0  0  0  0  0  0  0  0
    8.0168   10.9765   24.1437 C   0  0  0  0  0  0  0  0  0  0  0  0
    7.6610   13.1734   27.5120 O   0  0  0  0  0  0  0  0  0  0  0  0
    7.4105   13.1506   23.2966 O   0  0  0  0  0  0  0  0  0  0  0  0
    7.4809   15.4023   27.9197 O   0  0  0  0  0  0  0  0  0  0  0  0
    6.4463   12.3576   25.2768 O   0  0  0  0  0  0  0  0  0  0  0  0
    3.6704   16.7917   25.5597 H   0  0  0  0  0  0  0  0  0  0  0  0
    3.1374   15.0932   23.8329 H   0  0  0  0  0  0  0  0  0  0  0  0
    5.5143   16.4009   27.1580 H   0  0  0  0  0  0  0  0  0  0  0  0
    4.4519   12.9994   23.7033 H   0  0  0  0  0  0  0  0  0  0  0  0
    7.3073   10.1554   24.0134 H   0  0  0  0  0  0  0  0  0  0  0  0
    8.5318   10.8431   25.0995 H   0  0  0  0  0  0  0  0  0  0  0  0
    8.7611   10.9741   23.3433 H   0  0  0  0  0  0  0  0  0  0  0  0
    8.1850   15.2622   28.5882 H   0  0  0  0  0  0  0  0  0  0  0  0
  1  2  1  0  0  0  0
  1  3  2  0  0  0  0
  2  4  2  0  0  0  0
  3  5  1  0  0  0  0
  4  6  1  0  0  0  0
  5  6  2  0  0  0  0
  5  7  1  0  0  0  0
  6 13  1  0  0  0  0
  7 10  2  0  0  0  0
  7 12  1  0  0  0  0
  8  9  1  0  0  0  0
  8 11  2  0  0  0  0
  8 13  1  0  0  0  0
  1 14  1  0  0  0  0
  2 15  1  0  0  0  0
  3 16  1  0  0  0  0
  4 17  1  0  0  0  0
  9 18  1  0  0  0  0
  9 19  1  0  0  0  0
  9 20  1  0  0  0  0
 12 21  1  0  0  0  0
M  END
> <Gold.Version>
2020.3.0

> <Gold.Id.Protein>
1UYD|1UYD_protein|mol2

> <Gold.Goldscore.Fitness>
30.1051

> <Gold.Goldscore.Internal.Vdw>
-0.3060

> <Gold.Goldscore.Internal.Torsion>
-3.4480

> <Gold.Goldscore.External.Vdw>
20.9140

> <Gold.Goldscore.Internal.HBond>
0.0000

> <Gold.Goldscore.External.HBond>
1.5327

> <Gold.Goldscore.Internal.Correction>
-3.5696

> <Gold.Goldscore.Hbonds>
donor molecule, donor type, donor heavy atom, donor atom, acceptor molecule, acceptor atom, score
      L1  H    12    21       P1   693  0.77

> <Gold.Goldscore.Internal.Vdw.Weighted>
-0.3060

> <Gold.Goldscore.Internal.Torsion.Weighted>
-3.4480

> <Gold.Goldscore.External.Vdw.Weighted>
28.7568

> <Gold.Goldscore.Internal.HBond.Weighted>
0.0000

> <Gold.Goldscore.External.HBond.Weighted>
1.5327

> <Gold.Goldscore.Internal.Correction.Weighted>
-3.5696

> <Gold.Protein.ActiveResidues>
 PHE22   ILE26   GLU47   LEU48   SER50   ASN51   SER52   SER53   ASP54   ALA55  
 LEU56   ILE91   VAL92   ASP93   GLY95   ILE96   GLY97   MET98   ASP102  LEU103 
 ILE104  ASN106  LEU107  GLY108  ILE110  ALA111  LYS112  GLY135  VAL136  GLY137 
 PHE138  TYR139  VAL148  VAL150  THR152  TRP162  PHE170  GLY183  THR184  LYS185 
 VAL186  HOH2008 HOH2027 HOH2036 HOH2060 HOH2063 HOH2065 HOH2068 HOH2071 HOH2083
 HOH2085 HOH2139 HOH2146 HOH2147 HOH2150 HOH2174 HOH2176 HOH2177 HOH2275 HOH2276
 HOH2277

$$$$
