@<TRIPOS>MOLECULE
UNK
   41    43     1     0     0
SMALL
gas


@<TRIPOS>ATOM
      1 O1          27.8900     0.7810   -11.2830 oh       900 UNK      -0.381580
      2 C1          26.9190    -0.0280   -11.8980 c3       900 UNK       0.154677
      3 C2          26.2550     0.6490   -13.1070 c3       900 UNK       0.281635
      4 C3          24.7740     0.3620   -13.0630 c3       900 UNK       0.042887
      5 C4          24.5510    -0.0830   -11.6440 ca       900 UNK       0.007001
      6 C5          25.7570    -0.3140   -10.9610 ca       900 UNK       0.113262
      7 C6          25.7300    -0.7840    -9.6350 ca       900 UNK       0.312741
      8 C7          24.4950    -0.9390    -8.9990 ca       900 UNK       0.062160
      9 C8          23.3090    -0.7560    -9.6940 ca       900 UNK      -0.019049
     10 C9          23.3380    -0.3680   -11.0370 ca       900 UNK       0.086688
     11 O2          22.2310    -0.2290   -11.8470 os       900 UNK      -0.309994
     12 C10         21.0020    -0.5420   -11.3500 ca       900 UNK       0.086217
     13 C11         20.5030    -1.8360   -11.4600 ca       900 UNK       0.004738
     14 C12         19.3110    -2.1640   -10.8210 ca       900 UNK       0.126648
     15 F1          18.8030    -3.4050   -10.9260 f        900 UNK      -0.206878
     16 C13         18.6360    -1.2090   -10.0660 ca       900 UNK      -0.008272
     17 C14         19.1030     0.1050   -10.0070 ca       900 UNK       0.057516
     18 C15         18.4200     1.1400    -9.2610 cg       900 UNK       0.099317
     19 C16         20.2890     0.4300   -10.6550 ca       900 UNK      -0.013178
     20 S1          27.1780    -1.3350    -8.7180 sy       900 UNK      -0.236232
     21 O3          26.7390    -2.4320    -7.8610 o        900 UNK      -0.517201
     22 O4          28.2840    -1.5520    -9.6510 o        900 UNK      -0.517201
     23 C17         27.6150     0.0510    -7.5320 c3       900 UNK       0.205153
     24 F2          26.3930     1.9660   -13.0190 f        900 UNK      -0.203109
     25 F3          26.7650     0.2480   -14.2650 f        900 UNK      -0.203109
     26 N1          17.8860     1.9700    -8.6640 n1       900 UNK      -0.192452
     27 C18         28.2840     1.2000    -8.2640 c3       900 UNK       0.037181
     28 H1          28.4340     1.2210   -11.9480 ho       900 UNK       0.211270
     29 H2          27.3620    -0.9730   -12.2080 h1       900 UNK       0.072220
     30 H3          24.5370    -0.4390   -13.7580 hc       900 UNK       0.038044
     31 H4          24.1820     1.2310   -13.3490 hc       900 UNK       0.038044
     32 H5          24.4470    -1.2650    -7.9730 ha       900 UNK       0.075092
     33 H6          22.3720    -0.9490    -9.1960 ha       900 UNK       0.065544
     34 H7          21.0600    -2.5910   -11.9950 ha       900 UNK       0.068184
     35 H8          17.7640    -1.5210    -9.5280 ha       900 UNK       0.066776
     36 H9          20.6810     1.4260   -10.5650 ha       900 UNK       0.066475
     37 H10         26.7000     0.3530    -7.0240 h1       900 UNK       0.161759
     38 H11         28.2860    -0.3850    -6.7960 h1       900 UNK       0.161759
     39 H12         28.6280     1.9640    -7.5640 hc       900 UNK       0.035089
     40 H13         27.5820     1.6810    -8.9400 hc       900 UNK       0.035089
     41 H14         29.1450     0.8680    -8.8470 hc       900 UNK       0.035089
@<TRIPOS>BOND
     1     1     2 1   
     2     1    28 1   
     3     2     3 1   
     4     2     6 1   
     5     2    29 1   
     6     3     4 1   
     7     3    24 1   
     8     3    25 1   
     9     4     5 1   
    10     4    30 1   
    11     4    31 1   
    12     5     6 ar  
    13     5    10 ar  
    14     6     7 ar  
    15     7     8 ar  
    16     7    20 1   
    17     8     9 ar  
    18     8    32 1   
    19     9    10 ar  
    20     9    33 1   
    21    10    11 1   
    22    11    12 1   
    23    12    13 ar  
    24    12    19 ar  
    25    13    14 ar  
    26    13    34 1   
    27    14    15 1   
    28    14    16 ar  
    29    16    17 ar  
    30    16    35 1   
    31    17    18 1   
    32    17    19 ar  
    33    18    26 3   
    34    19    36 1   
    35    20    21 2   
    36    20    22 2   
    37    20    23 1   
    38    23    27 1   
    39    23    37 1   
    40    23    38 1   
    41    27    39 1   
    42    27    40 1   
    43    27    41 1   
@<TRIPOS>SUBSTRUCTURE
     1 UNK         1 TEMP              0 ****  ****    0 ROOT
