@<TRIPOS>MOLECULE
UNK
   38    40     1     0     0
SMALL
gas


@<TRIPOS>ATOM
      1 O1          27.5730     1.5600   -11.1460 oh       900 UNK      -0.381580
      2 C1          27.1540     0.3090   -11.6550 c3       900 UNK       0.154677
      3 C2          26.5250     0.3790   -13.0560 c3       900 UNK       0.281635
      4 C3          25.0350     0.5810   -12.8470 c3       900 UNK       0.042887
      5 C4          24.8120    -0.0920   -11.5080 ca       900 UNK       0.007001
      6 C5          26.0210    -0.2540   -10.8170 ca       900 UNK       0.113252
      7 C6          26.0220    -0.7900    -9.5190 ca       900 UNK       0.312521
      8 C7          24.8060    -1.1040    -8.9090 ca       900 UNK       0.062150
      9 C8          23.6060    -0.9320    -9.5920 ca       900 UNK      -0.019050
     10 C9          23.6090    -0.4310   -10.8990 ca       900 UNK       0.086687
     11 O2          22.4890    -0.2470   -11.6760 os       900 UNK      -0.310048
     12 C10         21.2540    -0.5380   -11.1770 ca       900 UNK       0.084784
     13 C11         20.6850    -1.7900   -11.3900 ca       900 UNK      -0.012441
     14 C12         19.4310    -2.0620   -10.8560 ca       900 UNK       0.044486
     15 Cl1         18.6840    -3.5700   -11.0980 cl       900 UNK      -0.084205
     16 C13         18.7500    -1.1040   -10.1190 ca       900 UNK      -0.025468
     17 C14         19.3000     0.1630    -9.9430 ca       900 UNK       0.056087
     18 C15         18.5790     1.1980    -9.2290 cg       900 UNK       0.099263
     19 C16         20.5650     0.4310   -10.4480 ca       900 UNK      -0.013285
     20 S1          27.5210    -1.0660    -8.5760 sy       900 UNK      -0.238367
     21 O3          27.2090    -1.9750    -7.4730 o        900 UNK      -0.517439
     22 O4          28.6010    -1.4070    -9.5000 o        900 UNK      -0.517439
     23 C17         27.9050     0.6150    -7.8640 c3       900 UNK       0.199124
     24 F1          27.0580     1.3230   -13.8300 f        900 UNK      -0.203109
     25 F2          26.6750    -0.7990   -13.6650 f        900 UNK      -0.203109
     26 N1          18.0100     2.0270    -8.6670 n1       900 UNK      -0.192453
     27 H1          28.3370     1.8870   -11.6620 ho       900 UNK       0.211270
     28 H2          28.0010    -0.3730   -11.7040 h1       900 UNK       0.072220
     29 H3          24.4360     0.1830   -13.6670 hc       900 UNK       0.038044
     30 H4          24.7950     1.6420   -12.7670 hc       900 UNK       0.038044
     31 H5          24.7820    -1.4950    -7.9040 ha       900 UNK       0.075092
     32 H6          22.6890    -1.2150    -9.0980 ha       900 UNK       0.065544
     33 H7          21.2220    -2.5510   -11.9360 ha       900 UNK       0.066653
     34 H8          17.8150    -1.3860    -9.6830 ha       900 UNK       0.065251
     35 H9          21.0240     1.3830   -10.2560 ha       900 UNK       0.066473
     36 H10         28.8490     0.5010    -7.3450 h1       900 UNK       0.158282
     37 H11         27.1050     0.9090    -7.1860 h1       900 UNK       0.158282
     38 H12         28.0240     1.3380    -8.6640 h1       900 UNK       0.158282
@<TRIPOS>BOND
     1     1     2 1   
     2     1    27 1   
     3     2     3 1   
     4     2     6 1   
     5     2    28 1   
     6     3     4 1   
     7     3    24 1   
     8     3    25 1   
     9     4     5 1   
    10     4    29 1   
    11     4    30 1   
    12     5     6 ar  
    13     5    10 ar  
    14     6     7 ar  
    15     7     8 ar  
    16     7    20 1   
    17     8     9 ar  
    18     8    31 1   
    19     9    10 ar  
    20     9    32 1   
    21    10    11 1   
    22    11    12 1   
    23    12    13 ar  
    24    12    19 ar  
    25    13    14 ar  
    26    13    33 1   
    27    14    15 1   
    28    14    16 ar  
    29    16    17 ar  
    30    16    34 1   
    31    17    18 1   
    32    17    19 ar  
    33    18    26 3   
    34    19    35 1   
    35    20    21 2   
    36    20    22 2   
    37    20    23 1   
    38    23    36 1   
    39    23    37 1   
    40    23    38 1   
@<TRIPOS>SUBSTRUCTURE
     1 UNK         1 TEMP              0 ****  ****    0 ROOT
